
 Model Input Parameters:  ROMS/TOMS version 3.7  
                          Friday - November 13, 2020 -  6:56:01 PM
 -----------------------------------------------------------------------------

 Northwest Atlantic 7km Grid

 Operating system : Linux
 CPU/hardware     : x86_64
 Compiler system  : ifort
 Compiler command : /apps2/mpich2/1.5-ics/bin/mpif90
 Compiler flags   : -heap-arrays -fp-model precise -g -check uninit -ftrapuv -traceback -check bounds -free -free

 Input Script  : 

 SVN Root URL  : https:://myroms.org/svn/src
 SVN Revision  : exported

 Local Root    : /gpfs/scratchfs1/kmm18005-lab/myromsdir/roms
 Header Dir    : /gpfs/scratchfs1/kmm18005-lab/myromsdir/roms/User/Include
 Header file   : nwa.h
 Analytical Dir: /gpfs/scratchfs1/kmm18005-lab/myromsdir/roms/ROMS/Functionals

 Resolution, Grid 01: 0720x0360x040,  Parallel Nodes: 128,  Tiling: 008x016


 Physical Parameters, Grid: 01
 =============================

     370000  ntimes            Number of timesteps for 3-D equations.
    240.000  dt                Timestep size (s) for 3-D equations.
         30  ndtfast           Number of timesteps for 2-D equations between
                                 each 3D timestep.
          1  ERstr             Starting ensemble/perturbation run number.
          1  ERend             Ending ensemble/perturbation run number.
          0  nrrec             Number of restart records to read from disk.
          T  LcycleRST         Switch to recycle time-records in restart file.
       1800  nRST              Number of timesteps between the writing of data
                                 into restart fields.
          1  ninfo             Number of timesteps between print of information
                                 to standard output.
          F  ldefout           Switch to create a new output NetCDF file(s).
        360  nHIS              Number of timesteps between the writing fields
                                 into history file.
        360  ndefHIS           Number of timesteps between creation of new
                                 history files.
          0  nQCK              Number of timesteps between the writing fields
                                 into quicksave file.
          1  ntsAVG            Starting timestep for the accumulation of output
                                 time-averaged data.
        360  nAVG              Number of timesteps between the writing of
                                 time-averaged data into averages file.
        360  ndefAVG           Number of timesteps between creation of new
                                 time-averaged file.
 5.0000E+00  nl_tnu2(01)       NLM Horizontal, harmonic mixing coefficient
                                 (m2/s) for tracer 01: temp
 5.0000E+00  nl_tnu2(02)       NLM Horizontal, harmonic mixing coefficient
                                 (m2/s) for tracer 02: salt
 2.5000E+01  nl_visc2          NLM Horizontal, harmonic mixing coefficient
                                 (m2/s) for momentum.
          F  LuvSponge         Turning OFF sponge on horizontal momentum.
          F  LtracerSponge(01) Turning OFF sponge on tracer 01: temp
          F  LtracerSponge(02) Turning OFF sponge on tracer 02: salt
 1.0000E-06  Akt_bak(01)       Background vertical mixing coefficient (m2/s)
                                 for tracer 01: temp
 1.0000E-06  Akt_bak(02)       Background vertical mixing coefficient (m2/s)
                                 for tracer 02: salt
 1.0000E-05  Akv_bak           Background vertical mixing coefficient (m2/s)
                                 for momentum.
 3.0000E-04  rdrg              Linear bottom drag coefficient (m/s).
 3.0000E-03  rdrg2             Quadratic bottom drag coefficient.
 2.0000E-02  Zob               Bottom roughness (m).
 1.0000E+01  blk_ZQ            Height (m) of surface air humidity measurement.
 1.0000E+01  blk_ZT            Height (m) of surface air temperature measurement.
 1.0000E+01  blk_ZW            Height (m) of surface winds measurement.
          1  lmd_Jwt           Jerlov water type.
          2  Vtransform        S-coordinate transformation equation.
          4  Vstretching       S-coordinate stretching function.
 7.0000E+00  theta_s           S-coordinate surface control parameter.
 2.0000E+00  theta_b           S-coordinate bottom  control parameter.
    250.000  Tcline            S-coordinate surface/bottom layer width (m) used
                                 in vertical coordinate stretching.
   1025.000  rho0              Mean density (kg/m3) for Boussinesq approximation.
  40925.040  dstart            Time-stamp assigned to model initialization (days).
     -1.000  tide_start        Reference time origin for tidal forcing (days).
19000101.00  time_ref          Reference time for units attribute (yyyymmdd.dd)
 3.6000E+02  Tnudg(01)         Nudging/relaxation time scale (days)
                                 for tracer 01: temp
 3.6000E+02  Tnudg(02)         Nudging/relaxation time scale (days)
                                 for tracer 02: salt
 9.0000E+01  Tnudg_SSS         Nudging/relaxation time scale (days)
                                 for sea surface salinity.
 1.0000E-01  sss_mismatch_thresdifference in SSS that triggers correction
                                 for sea surface salinity.
 3.6000E+02  Znudg             Nudging/relaxation time scale (days)
                                 for free-surface.
 3.6000E+02  M2nudg            Nudging/relaxation time scale (days)
                                 for 2D momentum.
 3.6000E+02  M3nudg            Nudging/relaxation time scale (days)
                                 for 3D momentum.
 1.2000E+02  obcfac            Factor between passive and active
                                 open boundary conditions.
          F  VolCons(1)        NLM western  edge boundary volume conservation.
          F  VolCons(2)        NLM southern edge boundary volume conservation.
          F  VolCons(3)        NLM eastern  edge boundary volume conservation.
          F  VolCons(4)        NLM northern edge boundary volume conservation.
     10.000  T0                Background potential temperature (C) constant.
     35.000  S0                Background salinity (PSU) constant.
      1.000  gamma2            Slipperiness variable: free-slip (1.0) or 
                                                      no-slip (-1.0).
          F  LuvSrc            Turning OFF momentum point Sources/Sinks.
          F  LwSrc             Turning OFF volume influx point Sources/Sinks.
          F  LtracerSrc(01)    Turning OFF point Sources/Sinks on tracer 01: temp
          F  LtracerSrc(02)    Turning OFF point Sources/Sinks on tracer 02: salt
          T  LsshCLM           Turning ON  processing of SSH climatology.
          T  Lm2CLM            Turning ON  processing of 2D momentum climatology.
          T  Lm3CLM            Turning ON  processing of 3D momentum climatology.
          T  LtracerCLM(01)    Turning ON  processing of climatology tracer 01: temp
          T  LtracerCLM(02)    Turning ON  processing of climatology tracer 02: salt
          T  LnudgeM2CLM       Turning ON  nudging of 2D momentum climatology.
          T  LnudgeM3CLM       Turning ON  nudging of 3D momentum climatology.
          T  LnudgeTCLM(01)    Turning ON  nudging of climatology tracer 01: temp
          T  LnudgeTCLM(02)    Turning ON  nudging of climatology tracer 02: salt

          T  Hout(idFsur)      Write out free-surface.
          T  Hout(idUbar)      Write out 2D U-momentum component.
          T  Hout(idVbar)      Write out 2D V-momentum component.
          T  Hout(idUvel)      Write out 3D U-momentum component.
          T  Hout(idVvel)      Write out 3D V-momentum component.
          T  Hout(idWvel)      Write out W-momentum component.
          T  Hout(idOvel)      Write out omega vertical velocity.
          T  Hout(idTvar)      Write out tracer 01: temp
          T  Hout(idTvar)      Write out tracer 02: salt
          T  Hout(idTsur)      Write out surface net heat flux.
          T  Hout(idTsur)      Write out surface net salt flux.
          T  Hout(idSrad)      Write out shortwave radiation flux.
          T  Hout(idLrad)      Write out longwave radiation flux.
          T  Hout(idLhea)      Write out latent heat flux.
          T  Hout(idShea)      Write out sensible heat flux.
          T  Hout(idEmPf)      Write out E-P flux.
          T  Hout(idevap)      Write out evaporation rate.
          T  Hout(idrain)      Write out rain rate.
          T  Hout(idVvis)      Write out vertical viscosity: AKv.
          T  Hout(idTdif)      Write out vertical diffusion: AKt(itemp).
          T  Hout(idHsbl)      Write out depth of surface boundary layer.

          T  Aout(idFsur)      Write out averaged free-surface.
          T  Aout(idUbar)      Write out averaged 2D U-momentum component.
          T  Aout(idVbar)      Write out averaged 2D V-momentum component.
          T  Aout(idUvel)      Write out averaged 3D U-momentum component.
          T  Aout(idVvel)      Write out averaged 3D V-momentum component.
          T  Aout(idWvel)      Write out averaged W-momentum component.
          T  Aout(idOvel)      Write out averaged omega vertical velocity.
          T  Aout(idTvar)      Write out averaged tracer 01: temp
          T  Aout(idTvar)      Write out averaged tracer 02: salt
          T  Aout(idUsms)      Write out averaged surface U-momentum stress.
          T  Aout(idVsms)      Write out averaged surface V-momentum stress.
          T  Aout(idRunoff)    Write out averaged surface fresh water input via runoff.
          T  Aout(idPair)      Write out averaged surface air pressure.
          T  Aout(idUair)      Write out averaged surface U-wind component.
          T  Aout(idVair)      Write out averaged surface V-wind component.
          T  Aout(idTsur)      Write out averaged surface net heat flux.
          T  Aout(idTsur)      Write out averaged surface net salt flux.
          T  Aout(idSrad)      Write out averaged shortwave radiation flux.
          T  Aout(idLrad)      Write out averaged longwave radiation flux.
          T  Aout(idLhea)      Write out averaged latent heat flux.
          T  Aout(idShea)      Write out averaged sensible heat flux.
          T  Aout(idevap)      Write out averaged evaporation rate.
          T  Aout(idrain)      Write out averaged rain rate.
          T  Aout(idDano)      Write out averaged density anomaly.
          T  Aout(idVvis)      Write out averaged vertical viscosity: AKv.
          T  Aout(idTdif)      Write out averaged vertical diffusion: AKt(itemp).
          T  Aout(idHsbl)      Write out averaged depth of surface boundary layer.

 Output/Input Files:

             Output Restart File:  /gpfs/scratchfs1/kmm18005-lab/myromsdir/output/NWA-KM_rst.nc
        Prefix for History Files:  /gpfs/scratchfs1/kmm18005-lab/myromsdir/output/NWA-KM_his
       Prefix for Averages Files:  /gpfs/scratchfs1/kmm18005-lab/myromsdir/output/NWA-KM_avg
                 Input Grid File:  /gpfs/scratchfs1/kmm18005-lab/roms_a8cdf6/roms/Data/ROMS/Grid/NWA_grd.nc
    Input Nonlinear Initial File:  /gpfs/scratchfs1/kmm18005-lab/myromsdir/input/NWA_avg_fmumem.nc
           Input Forcing File 01:  /gpfs/scratchfs1/kmm18005-lab/myromsdir/input/MERRA/MERRA_lwrad_down_2009-2014_3hours_corr.nc
           Input Forcing File 02:  /gpfs/scratchfs1/kmm18005-lab/myromsdir/input/MERRA/MERRA_Pair_2009-2014_3hours.nc
           Input Forcing File 03:  /gpfs/scratchfs1/kmm18005-lab/myromsdir/input/MERRA/MERRA_Qair_2009-2014_3hours.nc
           Input Forcing File 04:  /gpfs/scratchfs1/kmm18005-lab/myromsdir/input/MERRA/MERRA_rain_2009-2014_3hours.nc
           Input Forcing File 05:  /gpfs/scratchfs1/kmm18005-lab/myromsdir/input/MERRA/MERRA_swrad_2009-2014_3hours_corr.nc
           Input Forcing File 06:  /gpfs/scratchfs1/kmm18005-lab/myromsdir/input/MERRA/MERRA_Tair_2009-2014_3hours.nc
           Input Forcing File 07:  /gpfs/scratchfs1/kmm18005-lab/myromsdir/input/MERRA/MERRA_Uwind_2009-2014_3hours.nc
           Input Forcing File 08:  /gpfs/scratchfs1/kmm18005-lab/myromsdir/input/MERRA/MERRA_Vwind_2009-2014_3hours.nc
           Input Forcing File 09:  /gpfs/scratchfs1/kmm18005-lab/myromsdir/input/runoff_NWA_daitren_inter_annual_1948-2015.nc
           Input Forcing File 10:  /gpfs/scratchfs1/kmm18005-lab/myromsdir/input/sss_monthly_climato_flooded.nc
           Input Forcing File 11:  /gpfs/scratchfs1/kmm18005-lab/myromsdir/input/NWA_tides_otps.nc
           Input Forcing File 12:  /gpfs/scratchfs1/kmm18005-lab/myromsdir/input/composite_CO2_MLO+GLO.nc
           Input Forcing File 13:  /gpfs/scratchfs1/kmm18005-lab/myromsdir/input/Soluble_Fe_Flux_PI_ROMS.nc
           Input Forcing File 14:  /gpfs/scratchfs1/kmm18005-lab/myromsdir/input/iron_sediment_NWA.nc
           Input Forcing File 15:  /gpfs/scratchfs1/kmm18005-lab/myromsdir/input/Mineral_Fe_Flux_PI_ROMS.nc
           Input Forcing File 16:  /gpfs/scratchfs1/kmm18005-lab/myromsdir/input/NEWS/NWA_river_ldon_runoff_bio_NEWS_y1948-2015.nc
           Input Forcing File 17:  /gpfs/scratchfs1/kmm18005-lab/myromsdir/input/NEWS/NWA_river_ndet_runoff_bio_NEWS_y1948-2015.nc
           Input Forcing File 18:  /gpfs/scratchfs1/kmm18005-lab/myromsdir/input/NEWS/NWA_river_no3_runoff_bio_NEWS_y1948-2015.nc
           Input Forcing File 19:  /gpfs/scratchfs1/kmm18005-lab/myromsdir/input/NEWS/NWA_river_sldon_runoff_bio_NEWS_y1948-2015.nc
           Input Forcing File 20:  /gpfs/scratchfs1/kmm18005-lab/myromsdir/input/NEWS/NWA_river_srdon_runoff_bio_NEWS_y1948-2015.nc
           Input Forcing File 21:  /gpfs/scratchfs1/kmm18005-lab/myromsdir/input/NEWS/NWA_river_po4_runoff_bio_NEWS_y1948-2015.nc
           Input Forcing File 22:  /gpfs/scratchfs1/kmm18005-lab/myromsdir/input/NEWS/NWA_river_ldop_runoff_bio_NEWS_y1948-2015.nc
           Input Forcing File 23:  /gpfs/scratchfs1/kmm18005-lab/myromsdir/input/NEWS/NWA_river_sldop_runoff_bio_NEWS_y1948-2015.nc
           Input Forcing File 24:  /gpfs/scratchfs1/kmm18005-lab/myromsdir/input/NEWS/NWA_river_srdop_runoff_bio_NEWS_y1948-2015.nc
          Input Climatology File:  /gpfs/scratchfs1/kmm18005-lab/myromsdir/input/clim_SODA/NWA_clim_SODA3.3.1_y2012.nc
                                   /gpfs/scratchfs1/kmm18005-lab/myromsdir/input/clim_SODA/NWA_clim_SODA3.3.1_y2013.nc
                                   /gpfs/scratchfs1/kmm18005-lab/myromsdir/input/clim_SODA/NWA_clim_SODA3.3.1_y2014.nc
          Input Climatology File:  /gpfs/scratchfs1/kmm18005-lab/myromsdir/input/NWA_clim_bio.nc
   Input Nudge Coefficients File:  /gpfs/scratchfs1/kmm18005-lab/myromsdir/input/NWA_nudging_coef.nc
         Input Boundary File 01:  /gpfs/scratchfs1/kmm18005-lab/myromsdir/input/bdry_SODA/NWA_bdry_SODA3.3.1_y2012.nc
                                   /gpfs/scratchfs1/kmm18005-lab/myromsdir/input/bdry_SODA/NWA_bdry_SODA3.3.1_y2013.nc
                                   /gpfs/scratchfs1/kmm18005-lab/myromsdir//input/bdry_SODA/NWA_bdry_SODA3.3.1_y2014.nc
         Input Boundary File 02:  /gpfs/scratchfs1/kmm18005-lab/myromsdir/input/NWA_bdry_bio.nc

 Tile partition information for Grid 01:  0720x0360x0040  tiling: 008x016

     tile     Istr     Iend     Jstr     Jend     Npts

 Number of tracers:            2
        0        1       90        1       19    68400
        1       91      180        1       19    68400
        2      181      270        1       19    68400
        3      271      360        1       19    68400
        4      361      450        1       19    68400
        5      451      540        1       19    68400
        6      541      630        1       19    68400
        7      631      720        1       19    68400
        8        1       90       20       42    82800
        9       91      180       20       42    82800
       10      181      270       20       42    82800
       11      271      360       20       42    82800
       12      361      450       20       42    82800
       13      451      540       20       42    82800
       14      541      630       20       42    82800
       15      631      720       20       42    82800
       16        1       90       43       65    82800
       17       91      180       43       65    82800
       18      181      270       43       65    82800
       19      271      360       43       65    82800
       20      361      450       43       65    82800
       21      451      540       43       65    82800
       22      541      630       43       65    82800
       23      631      720       43       65    82800
       24        1       90       66       88    82800
       25       91      180       66       88    82800
       26      181      270       66       88    82800
       27      271      360       66       88    82800
       28      361      450       66       88    82800
       29      451      540       66       88    82800
       30      541      630       66       88    82800
       31      631      720       66       88    82800
       32        1       90       89      111    82800
       33       91      180       89      111    82800
       34      181      270       89      111    82800
       35      271      360       89      111    82800
       36      361      450       89      111    82800
       37      451      540       89      111    82800
       38      541      630       89      111    82800
       39      631      720       89      111    82800
       40        1       90      112      134    82800
       41       91      180      112      134    82800
       42      181      270      112      134    82800
       43      271      360      112      134    82800
       44      361      450      112      134    82800
       45      451      540      112      134    82800
       46      541      630      112      134    82800
       47      631      720      112      134    82800
       48        1       90      135      157    82800
       49       91      180      135      157    82800
       50      181      270      135      157    82800
       51      271      360      135      157    82800
       52      361      450      135      157    82800
       53      451      540      135      157    82800
       54      541      630      135      157    82800
       55      631      720      135      157    82800
       56        1       90      158      180    82800
       57       91      180      158      180    82800
       58      181      270      158      180    82800
       59      271      360      158      180    82800
       60      361      450      158      180    82800
       61      451      540      158      180    82800
       62      541      630      158      180    82800
       63      631      720      158      180    82800
       64        1       90      181      203    82800
       65       91      180      181      203    82800
       66      181      270      181      203    82800
       67      271      360      181      203    82800
       68      361      450      181      203    82800
       69      451      540      181      203    82800
       70      541      630      181      203    82800
       71      631      720      181      203    82800
       72        1       90      204      226    82800
       73       91      180      204      226    82800
       74      181      270      204      226    82800
       75      271      360      204      226    82800
       76      361      450      204      226    82800
       77      451      540      204      226    82800
       78      541      630      204      226    82800
       79      631      720      204      226    82800
       80        1       90      227      249    82800
       81       91      180      227      249    82800
       82      181      270      227      249    82800
       83      271      360      227      249    82800
       84      361      450      227      249    82800
       85      451      540      227      249    82800
       86      541      630      227      249    82800
       87      631      720      227      249    82800
       88        1       90      250      272    82800
       89       91      180      250      272    82800
       90      181      270      250      272    82800
       91      271      360      250      272    82800
       92      361      450      250      272    82800
       93      451      540      250      272    82800
       94      541      630      250      272    82800
       95      631      720      250      272    82800
       96        1       90      273      295    82800
       97       91      180      273      295    82800
       98      181      270      273      295    82800
       99      271      360      273      295    82800
      100      361      450      273      295    82800
      101      451      540      273      295    82800
      102      541      630      273      295    82800
      103      631      720      273      295    82800
      104        1       90      296      318    82800
      105       91      180      296      318    82800
      106      181      270      296      318    82800
      107      271      360      296      318    82800
      108      361      450      296      318    82800
      109      451      540      296      318    82800
      110      541      630      296      318    82800
      111      631      720      296      318    82800
      112        1       90      319      341    82800
      113       91      180      319      341    82800
      114      181      270      319      341    82800
      115      271      360      319      341    82800
      116      361      450      319      341    82800
      117      451      540      319      341    82800
      118      541      630      319      341    82800
      119      631      720      319      341    82800
      120        1       90      342      360    68400
      121       91      180      342      360    68400
      122      181      270      342      360    68400
      123      271      360      342      360    68400
      124      361      450      342      360    68400
      125      451      540      342      360    68400
      126      541      630      342      360    68400
      127      631      720      342      360    68400

 Tile minimum and maximum fractional coordinates for Grid 01:
   (interior points only)

     tile     Xmin     Xmax     Ymin     Ymax     grid

        0     0.50    90.50     0.50    19.50  RHO-points
        1    90.50   180.50     0.50    19.50  RHO-points
        2   180.50   270.50     0.50    19.50  RHO-points
        3   270.50   360.50     0.50    19.50  RHO-points
        4   360.50   450.50     0.50    19.50  RHO-points
        5   450.50   540.50     0.50    19.50  RHO-points
        6   540.50   630.50     0.50    19.50  RHO-points
        7   630.50   720.50     0.50    19.50  RHO-points
        8     0.50    90.50    19.50    42.50  RHO-points
        9    90.50   180.50    19.50    42.50  RHO-points
       10   180.50   270.50    19.50    42.50  RHO-points
       11   270.50   360.50    19.50    42.50  RHO-points
       12   360.50   450.50    19.50    42.50  RHO-points
       13   450.50   540.50    19.50    42.50  RHO-points
       14   540.50   630.50    19.50    42.50  RHO-points
       15   630.50   720.50    19.50    42.50  RHO-points
       16     0.50    90.50    42.50    65.50  RHO-points
       17    90.50   180.50    42.50    65.50  RHO-points
       18   180.50   270.50    42.50    65.50  RHO-points
       19   270.50   360.50    42.50    65.50  RHO-points
       20   360.50   450.50    42.50    65.50  RHO-points
       21   450.50   540.50    42.50    65.50  RHO-points
       22   540.50   630.50    42.50    65.50  RHO-points
       23   630.50   720.50    42.50    65.50  RHO-points
       24     0.50    90.50    65.50    88.50  RHO-points
       25    90.50   180.50    65.50    88.50  RHO-points
       26   180.50   270.50    65.50    88.50  RHO-points
       27   270.50   360.50    65.50    88.50  RHO-points
       28   360.50   450.50    65.50    88.50  RHO-points
       29   450.50   540.50    65.50    88.50  RHO-points
       30   540.50   630.50    65.50    88.50  RHO-points
       31   630.50   720.50    65.50    88.50  RHO-points
       32     0.50    90.50    88.50   111.50  RHO-points
       33    90.50   180.50    88.50   111.50  RHO-points
       34   180.50   270.50    88.50   111.50  RHO-points
       35   270.50   360.50    88.50   111.50  RHO-points
       36   360.50   450.50    88.50   111.50  RHO-points
       37   450.50   540.50    88.50   111.50  RHO-points
       38   540.50   630.50    88.50   111.50  RHO-points
       39   630.50   720.50    88.50   111.50  RHO-points
       40     0.50    90.50   111.50   134.50  RHO-points
       41    90.50   180.50   111.50   134.50  RHO-points
       42   180.50   270.50   111.50   134.50  RHO-points
       43   270.50   360.50   111.50   134.50  RHO-points
       44   360.50   450.50   111.50   134.50  RHO-points
       45   450.50   540.50   111.50   134.50  RHO-points
       46   540.50   630.50   111.50   134.50  RHO-points
       47   630.50   720.50   111.50   134.50  RHO-points
       48     0.50    90.50   134.50   157.50  RHO-points
       49    90.50   180.50   134.50   157.50  RHO-points
       50   180.50   270.50   134.50   157.50  RHO-points
       51   270.50   360.50   134.50   157.50  RHO-points
       52   360.50   450.50   134.50   157.50  RHO-points
       53   450.50   540.50   134.50   157.50  RHO-points
       54   540.50   630.50   134.50   157.50  RHO-points
       55   630.50   720.50   134.50   157.50  RHO-points
       56     0.50    90.50   157.50   180.50  RHO-points
       57    90.50   180.50   157.50   180.50  RHO-points
       58   180.50   270.50   157.50   180.50  RHO-points
       59   270.50   360.50   157.50   180.50  RHO-points
       60   360.50   450.50   157.50   180.50  RHO-points
       61   450.50   540.50   157.50   180.50  RHO-points
       62   540.50   630.50   157.50   180.50  RHO-points
       63   630.50   720.50   157.50   180.50  RHO-points
       64     0.50    90.50   180.50   203.50  RHO-points
       65    90.50   180.50   180.50   203.50  RHO-points
       66   180.50   270.50   180.50   203.50  RHO-points
       67   270.50   360.50   180.50   203.50  RHO-points
       68   360.50   450.50   180.50   203.50  RHO-points
       69   450.50   540.50   180.50   203.50  RHO-points
       70   540.50   630.50   180.50   203.50  RHO-points
       71   630.50   720.50   180.50   203.50  RHO-points
       72     0.50    90.50   203.50   226.50  RHO-points
       73    90.50   180.50   203.50   226.50  RHO-points
       74   180.50   270.50   203.50   226.50  RHO-points
       75   270.50   360.50   203.50   226.50  RHO-points
       76   360.50   450.50   203.50   226.50  RHO-points
       77   450.50   540.50   203.50   226.50  RHO-points
       78   540.50   630.50   203.50   226.50  RHO-points
       79   630.50   720.50   203.50   226.50  RHO-points
       80     0.50    90.50   226.50   249.50  RHO-points
       81    90.50   180.50   226.50   249.50  RHO-points
       82   180.50   270.50   226.50   249.50  RHO-points
       83   270.50   360.50   226.50   249.50  RHO-points
       84   360.50   450.50   226.50   249.50  RHO-points
       85   450.50   540.50   226.50   249.50  RHO-points
       86   540.50   630.50   226.50   249.50  RHO-points
       87   630.50   720.50   226.50   249.50  RHO-points
       88     0.50    90.50   249.50   272.50  RHO-points
       89    90.50   180.50   249.50   272.50  RHO-points
       90   180.50   270.50   249.50   272.50  RHO-points
       91   270.50   360.50   249.50   272.50  RHO-points
       92   360.50   450.50   249.50   272.50  RHO-points
       93   450.50   540.50   249.50   272.50  RHO-points
       94   540.50   630.50   249.50   272.50  RHO-points
       95   630.50   720.50   249.50   272.50  RHO-points
       96     0.50    90.50   272.50   295.50  RHO-points
       97    90.50   180.50   272.50   295.50  RHO-points
       98   180.50   270.50   272.50   295.50  RHO-points
       99   270.50   360.50   272.50   295.50  RHO-points
      100   360.50   450.50   272.50   295.50  RHO-points
      101   450.50   540.50   272.50   295.50  RHO-points
      102   540.50   630.50   272.50   295.50  RHO-points
      103   630.50   720.50   272.50   295.50  RHO-points
      104     0.50    90.50   295.50   318.50  RHO-points
      105    90.50   180.50   295.50   318.50  RHO-points
      106   180.50   270.50   295.50   318.50  RHO-points
      107   270.50   360.50   295.50   318.50  RHO-points
      108   360.50   450.50   295.50   318.50  RHO-points
      109   450.50   540.50   295.50   318.50  RHO-points
      110   540.50   630.50   295.50   318.50  RHO-points
      111   630.50   720.50   295.50   318.50  RHO-points
      112     0.50    90.50   318.50   341.50  RHO-points
      113    90.50   180.50   318.50   341.50  RHO-points
      114   180.50   270.50   318.50   341.50  RHO-points
      115   270.50   360.50   318.50   341.50  RHO-points
      116   360.50   450.50   318.50   341.50  RHO-points
      117   450.50   540.50   318.50   341.50  RHO-points
      118   540.50   630.50   318.50   341.50  RHO-points
      119   630.50   720.50   318.50   341.50  RHO-points
      120     0.50    90.50   341.50   360.50  RHO-points
      121    90.50   180.50   341.50   360.50  RHO-points
      122   180.50   270.50   341.50   360.50  RHO-points
      123   270.50   360.50   341.50   360.50  RHO-points
      124   360.50   450.50   341.50   360.50  RHO-points
      125   450.50   540.50   341.50   360.50  RHO-points
      126   540.50   630.50   341.50   360.50  RHO-points
      127   630.50   720.50   341.50   360.50  RHO-points

        0     1.00    90.50     0.50    19.50    U-points
        1    90.50   180.50     0.50    19.50    U-points
        2   180.50   270.50     0.50    19.50    U-points
        3   270.50   360.50     0.50    19.50    U-points
        4   360.50   450.50     0.50    19.50    U-points
        5   450.50   540.50     0.50    19.50    U-points
        6   540.50   630.50     0.50    19.50    U-points
        7   630.50   720.00     0.50    19.50    U-points
        8     1.00    90.50    19.50    42.50    U-points
        9    90.50   180.50    19.50    42.50    U-points
       10   180.50   270.50    19.50    42.50    U-points
       11   270.50   360.50    19.50    42.50    U-points
       12   360.50   450.50    19.50    42.50    U-points
       13   450.50   540.50    19.50    42.50    U-points
       14   540.50   630.50    19.50    42.50    U-points
       15   630.50   720.00    19.50    42.50    U-points
       16     1.00    90.50    42.50    65.50    U-points
       17    90.50   180.50    42.50    65.50    U-points
       18   180.50   270.50    42.50    65.50    U-points
       19   270.50   360.50    42.50    65.50    U-points
       20   360.50   450.50    42.50    65.50    U-points
       21   450.50   540.50    42.50    65.50    U-points
       22   540.50   630.50    42.50    65.50    U-points
       23   630.50   720.00    42.50    65.50    U-points
       24     1.00    90.50    65.50    88.50    U-points
       25    90.50   180.50    65.50    88.50    U-points
       26   180.50   270.50    65.50    88.50    U-points
       27   270.50   360.50    65.50    88.50    U-points
       28   360.50   450.50    65.50    88.50    U-points
       29   450.50   540.50    65.50    88.50    U-points
       30   540.50   630.50    65.50    88.50    U-points
       31   630.50   720.00    65.50    88.50    U-points
       32     1.00    90.50    88.50   111.50    U-points
       33    90.50   180.50    88.50   111.50    U-points
       34   180.50   270.50    88.50   111.50    U-points
       35   270.50   360.50    88.50   111.50    U-points
       36   360.50   450.50    88.50   111.50    U-points
       37   450.50   540.50    88.50   111.50    U-points
       38   540.50   630.50    88.50   111.50    U-points
       39   630.50   720.00    88.50   111.50    U-points
       40     1.00    90.50   111.50   134.50    U-points
       41    90.50   180.50   111.50   134.50    U-points
       42   180.50   270.50   111.50   134.50    U-points
       43   270.50   360.50   111.50   134.50    U-points
       44   360.50   450.50   111.50   134.50    U-points
       45   450.50   540.50   111.50   134.50    U-points
       46   540.50   630.50   111.50   134.50    U-points
       47   630.50   720.00   111.50   134.50    U-points
       48     1.00    90.50   134.50   157.50    U-points
       49    90.50   180.50   134.50   157.50    U-points
       50   180.50   270.50   134.50   157.50    U-points
       51   270.50   360.50   134.50   157.50    U-points
       52   360.50   450.50   134.50   157.50    U-points
       53   450.50   540.50   134.50   157.50    U-points
       54   540.50   630.50   134.50   157.50    U-points
       55   630.50   720.00   134.50   157.50    U-points
       56     1.00    90.50   157.50   180.50    U-points
       57    90.50   180.50   157.50   180.50    U-points
       58   180.50   270.50   157.50   180.50    U-points
       59   270.50   360.50   157.50   180.50    U-points
       60   360.50   450.50   157.50   180.50    U-points
       61   450.50   540.50   157.50   180.50    U-points
       62   540.50   630.50   157.50   180.50    U-points
       63   630.50   720.00   157.50   180.50    U-points
       64     1.00    90.50   180.50   203.50    U-points
       65    90.50   180.50   180.50   203.50    U-points
       66   180.50   270.50   180.50   203.50    U-points
       67   270.50   360.50   180.50   203.50    U-points
       68   360.50   450.50   180.50   203.50    U-points
       69   450.50   540.50   180.50   203.50    U-points
       70   540.50   630.50   180.50   203.50    U-points
       71   630.50   720.00   180.50   203.50    U-points
       72     1.00    90.50   203.50   226.50    U-points
       73    90.50   180.50   203.50   226.50    U-points
       74   180.50   270.50   203.50   226.50    U-points
       75   270.50   360.50   203.50   226.50    U-points
       76   360.50   450.50   203.50   226.50    U-points
       77   450.50   540.50   203.50   226.50    U-points
       78   540.50   630.50   203.50   226.50    U-points
       79   630.50   720.00   203.50   226.50    U-points
       80     1.00    90.50   226.50   249.50    U-points
       81    90.50   180.50   226.50   249.50    U-points
       82   180.50   270.50   226.50   249.50    U-points
       83   270.50   360.50   226.50   249.50    U-points
       84   360.50   450.50   226.50   249.50    U-points
       85   450.50   540.50   226.50   249.50    U-points
       86   540.50   630.50   226.50   249.50    U-points
       87   630.50   720.00   226.50   249.50    U-points
       88     1.00    90.50   249.50   272.50    U-points
       89    90.50   180.50   249.50   272.50    U-points
       90   180.50   270.50   249.50   272.50    U-points
       91   270.50   360.50   249.50   272.50    U-points
       92   360.50   450.50   249.50   272.50    U-points
       93   450.50   540.50   249.50   272.50    U-points
       94   540.50   630.50   249.50   272.50    U-points
       95   630.50   720.00   249.50   272.50    U-points
       96     1.00    90.50   272.50   295.50    U-points
       97    90.50   180.50   272.50   295.50    U-points
       98   180.50   270.50   272.50   295.50    U-points
       99   270.50   360.50   272.50   295.50    U-points
      100   360.50   450.50   272.50   295.50    U-points
      101   450.50   540.50   272.50   295.50    U-points
      102   540.50   630.50   272.50   295.50    U-points
      103   630.50   720.00   272.50   295.50    U-points
      104     1.00    90.50   295.50   318.50    U-points
      105    90.50   180.50   295.50   318.50    U-points
      106   180.50   270.50   295.50   318.50    U-points
      107   270.50   360.50   295.50   318.50    U-points
      108   360.50   450.50   295.50   318.50    U-points
      109   450.50   540.50   295.50   318.50    U-points
      110   540.50   630.50   295.50   318.50    U-points
      111   630.50   720.00   295.50   318.50    U-points
      112     1.00    90.50   318.50   341.50    U-points
      113    90.50   180.50   318.50   341.50    U-points
      114   180.50   270.50   318.50   341.50    U-points
      115   270.50   360.50   318.50   341.50    U-points
      116   360.50   450.50   318.50   341.50    U-points
      117   450.50   540.50   318.50   341.50    U-points
      118   540.50   630.50   318.50   341.50    U-points
      119   630.50   720.00   318.50   341.50    U-points
      120     1.00    90.50   341.50   360.50    U-points
      121    90.50   180.50   341.50   360.50    U-points
      122   180.50   270.50   341.50   360.50    U-points
      123   270.50   360.50   341.50   360.50    U-points
      124   360.50   450.50   341.50   360.50    U-points
      125   450.50   540.50   341.50   360.50    U-points
      126   540.50   630.50   341.50   360.50    U-points
      127   630.50   720.00   341.50   360.50    U-points

        0     0.50    90.50     1.00    19.50    V-points
        1    90.50   180.50     1.00    19.50    V-points
        2   180.50   270.50     1.00    19.50    V-points
        3   270.50   360.50     1.00    19.50    V-points
        4   360.50   450.50     1.00    19.50    V-points
        5   450.50   540.50     1.00    19.50    V-points
        6   540.50   630.50     1.00    19.50    V-points
        7   630.50   720.50     1.00    19.50    V-points
        8     0.50    90.50    19.50    42.50    V-points
        9    90.50   180.50    19.50    42.50    V-points
       10   180.50   270.50    19.50    42.50    V-points
       11   270.50   360.50    19.50    42.50    V-points
       12   360.50   450.50    19.50    42.50    V-points
       13   450.50   540.50    19.50    42.50    V-points
       14   540.50   630.50    19.50    42.50    V-points
       15   630.50   720.50    19.50    42.50    V-points
       16     0.50    90.50    42.50    65.50    V-points
       17    90.50   180.50    42.50    65.50    V-points
       18   180.50   270.50    42.50    65.50    V-points
       19   270.50   360.50    42.50    65.50    V-points
       20   360.50   450.50    42.50    65.50    V-points
       21   450.50   540.50    42.50    65.50    V-points
       22   540.50   630.50    42.50    65.50    V-points
       23   630.50   720.50    42.50    65.50    V-points
       24     0.50    90.50    65.50    88.50    V-points
       25    90.50   180.50    65.50    88.50    V-points
       26   180.50   270.50    65.50    88.50    V-points
       27   270.50   360.50    65.50    88.50    V-points
       28   360.50   450.50    65.50    88.50    V-points
       29   450.50   540.50    65.50    88.50    V-points
       30   540.50   630.50    65.50    88.50    V-points
       31   630.50   720.50    65.50    88.50    V-points
       32     0.50    90.50    88.50   111.50    V-points
       33    90.50   180.50    88.50   111.50    V-points
       34   180.50   270.50    88.50   111.50    V-points
       35   270.50   360.50    88.50   111.50    V-points
       36   360.50   450.50    88.50   111.50    V-points
       37   450.50   540.50    88.50   111.50    V-points
       38   540.50   630.50    88.50   111.50    V-points
       39   630.50   720.50    88.50   111.50    V-points
       40     0.50    90.50   111.50   134.50    V-points
       41    90.50   180.50   111.50   134.50    V-points
       42   180.50   270.50   111.50   134.50    V-points
       43   270.50   360.50   111.50   134.50    V-points
       44   360.50   450.50   111.50   134.50    V-points
       45   450.50   540.50   111.50   134.50    V-points
       46   540.50   630.50   111.50   134.50    V-points
       47   630.50   720.50   111.50   134.50    V-points
       48     0.50    90.50   134.50   157.50    V-points
       49    90.50   180.50   134.50   157.50    V-points
       50   180.50   270.50   134.50   157.50    V-points
       51   270.50   360.50   134.50   157.50    V-points
       52   360.50   450.50   134.50   157.50    V-points
       53   450.50   540.50   134.50   157.50    V-points
       54   540.50   630.50   134.50   157.50    V-points
       55   630.50   720.50   134.50   157.50    V-points
       56     0.50    90.50   157.50   180.50    V-points
       57    90.50   180.50   157.50   180.50    V-points
       58   180.50   270.50   157.50   180.50    V-points
       59   270.50   360.50   157.50   180.50    V-points
       60   360.50   450.50   157.50   180.50    V-points
       61   450.50   540.50   157.50   180.50    V-points
       62   540.50   630.50   157.50   180.50    V-points
       63   630.50   720.50   157.50   180.50    V-points
       64     0.50    90.50   180.50   203.50    V-points
       65    90.50   180.50   180.50   203.50    V-points
       66   180.50   270.50   180.50   203.50    V-points
       67   270.50   360.50   180.50   203.50    V-points
       68   360.50   450.50   180.50   203.50    V-points
       69   450.50   540.50   180.50   203.50    V-points
       70   540.50   630.50   180.50   203.50    V-points
       71   630.50   720.50   180.50   203.50    V-points
       72     0.50    90.50   203.50   226.50    V-points
       73    90.50   180.50   203.50   226.50    V-points
       74   180.50   270.50   203.50   226.50    V-points
       75   270.50   360.50   203.50   226.50    V-points
       76   360.50   450.50   203.50   226.50    V-points
       77   450.50   540.50   203.50   226.50    V-points
       78   540.50   630.50   203.50   226.50    V-points
       79   630.50   720.50   203.50   226.50    V-points
       80     0.50    90.50   226.50   249.50    V-points
       81    90.50   180.50   226.50   249.50    V-points
       82   180.50   270.50   226.50   249.50    V-points
       83   270.50   360.50   226.50   249.50    V-points
       84   360.50   450.50   226.50   249.50    V-points
       85   450.50   540.50   226.50   249.50    V-points
       86   540.50   630.50   226.50   249.50    V-points
       87   630.50   720.50   226.50   249.50    V-points
       88     0.50    90.50   249.50   272.50    V-points
       89    90.50   180.50   249.50   272.50    V-points
       90   180.50   270.50   249.50   272.50    V-points
       91   270.50   360.50   249.50   272.50    V-points
       92   360.50   450.50   249.50   272.50    V-points
       93   450.50   540.50   249.50   272.50    V-points
       94   540.50   630.50   249.50   272.50    V-points
       95   630.50   720.50   249.50   272.50    V-points
       96     0.50    90.50   272.50   295.50    V-points
       97    90.50   180.50   272.50   295.50    V-points
       98   180.50   270.50   272.50   295.50    V-points
       99   270.50   360.50   272.50   295.50    V-points
      100   360.50   450.50   272.50   295.50    V-points
      101   450.50   540.50   272.50   295.50    V-points
      102   540.50   630.50   272.50   295.50    V-points
      103   630.50   720.50   272.50   295.50    V-points
      104     0.50    90.50   295.50   318.50    V-points
      105    90.50   180.50   295.50   318.50    V-points
      106   180.50   270.50   295.50   318.50    V-points
      107   270.50   360.50   295.50   318.50    V-points
      108   360.50   450.50   295.50   318.50    V-points
      109   450.50   540.50   295.50   318.50    V-points
      110   540.50   630.50   295.50   318.50    V-points
      111   630.50   720.50   295.50   318.50    V-points
      112     0.50    90.50   318.50   341.50    V-points
      113    90.50   180.50   318.50   341.50    V-points
      114   180.50   270.50   318.50   341.50    V-points
      115   270.50   360.50   318.50   341.50    V-points
      116   360.50   450.50   318.50   341.50    V-points
      117   450.50   540.50   318.50   341.50    V-points
      118   540.50   630.50   318.50   341.50    V-points
      119   630.50   720.50   318.50   341.50    V-points
      120     0.50    90.50   341.50   360.00    V-points
      121    90.50   180.50   341.50   360.00    V-points
      122   180.50   270.50   341.50   360.00    V-points
      123   270.50   360.50   341.50   360.00    V-points
      124   360.50   450.50   341.50   360.00    V-points
      125   450.50   540.50   341.50   360.00    V-points
      126   540.50   630.50   341.50   360.00    V-points
      127   630.50   720.50   341.50   360.00    V-points

 Maximum halo size in XI and ETA directions:

               HaloSizeI(1) =     204
               HaloSizeJ(1) =      70
                TileSide(1) =      96
                TileSize(1) =    2784


 Lateral Boundary Conditions: NLM
 ============================

 Variable               Grid  West Edge    South Edge   East Edge    North Edge
 ---------              ----  ----------   ----------   ----------   ----------

 zeta                     1   Closed       Chapman Imp  Chapman Imp  Closed

 ubar                     1   Closed       Flather      Flather      Closed

 vbar                     1   Closed       Flather      Flather      Closed

 u                        1   Closed       Rad + Nud    Rad + Nud    Closed

 v                        1   Closed       Rad + Nud    Rad + Nud    Closed

 temp                     1   Closed       Rad + Nud    Rad + Nud    Closed

 salt                     1   Closed       Rad + Nud    Rad + Nud    Closed

 Activated C-preprocessing Options:

 NWA                 Northwest Atlantic 7km Grid
 ADD_FSOBC           Adding tidal elevation to processed OBC data.
 ADD_M2OBC           Adding tidal currents to processed OBC data.
 ALBEDO_CURVE        Shortwave radiation adjusted by albedo curve.
 ANA_BSFLUX          Analytical kinematic bottom salinity flux.
 ANA_BTFLUX          Analytical kinematic bottom temperature flux.
 ANA_DRAG_GRID       Analytical spatially varying linear drag coefficient.
 ASSUMED_SHAPE       Using assumed-shape arrays.
 AVERAGES            Writing out time-averaged nonlinear model fields.
 BULK_FLUXES         Surface bulk fluxes parameterization.
 CCSM_FLUXES         Surface bulk fluxes parameterization.
 CORE_FORCING        Humidity from CORE forcing files.
 CURVGRID            Orthogonal curvilinear grid.
 DIFF_GRID           Horizontal diffusion coefficient scaled by grid size.
 DIURNAL_SRFLUX      Modulate shortwave radiation by the local diurnal cycle.
 DJ_GRADPS           Parabolic Splines density Jacobian (Shchepetkin, 2002).
 DOUBLE_PRECISION    Double precision arithmetic.
 EMINUSP             Compute Salt Flux using E-P.
 LIMIT_BSTRESS       Limit bottom stress to maintain bottom velocity direction.
 LMD_BKPP            KPP bottom boundary layer mixing.
 LMD_CONVEC          LMD convective mixing due to shear instability.
 LMD_MIXING          Large/McWilliams/Doney interior mixing.
 LMD_NONLOCAL        LMD convective nonlocal transport.
 LMD_RIMIX           LMD diffusivity due to shear instability.
 LMD_SHAPIRO         Shapiro filtering boundary layer depth.
 LMD_SKPP            KPP surface boundary layer mixing.
 LONGWAVE_OUT        Compute outgoing longwave radiation internally.
 MASKING             Land/Sea masking.
 MIX_GEO_TS          Mixing of tracers along geopotential surfaces.
 MIX_S_UV            Mixing of momentum along constant S-surfaces.
 MPI                 MPI distributed-memory configuration.
 NONLINEAR           Nonlinear Model.
 NONLIN_EOS          Nonlinear Equation of State for seawater.
 NO_HIS              Turn off writing of history files.
 NO_WRITE_GRID       Not Writing grid arrays into NetCDF ouput files.
 POT_TIDES           Add tidal potential terms to the forcing.
 POWER_LAW           Power-law shape time-averaging barotropic filter.
 PROFILE             Time profiling activated .
 RUNOFF              Surface flux of ungauged river runoff.
 RADIATION_2D        Use tangential phase speed in radiation conditions.
 RI_SPLINES          Parabolic Spline Reconstruction for Richardson Number.
 RST_SINGLE          Single precision fields in restart NetCDF file.
 SALINITY            Using salinity.
 SCORRECTION         Surface salinity flux correction.
 SSSC_THRESHOLD      Limit to SCORRECTION nudging.
 SOLAR_SOURCE        Solar Radiation Source Term.
 SOLVE3D             Solving 3D Primitive Equations.
 SPLINES_VDIFF       Parabolic Spline Reconstruction for Vertical Diffusion.
 SPLINES_VVISC       Parabolic Spline Reconstruction for Vertical Viscosity.
 SSH_TIDES           Add tidal elevation to SSH climatology.
 TIDES_ASTRO         Compute astronomical (long-period tide) corrections.
 TS_U3HADVECTION     Third-order upstream horizontal advection of tracers.
 TS_C4VADVECTION     Fourth-order centered vertical advection of tracers.
 TS_DIF2             Harmonic mixing of tracers.
 UV_ADV              Advection of momentum.
 UV_COR              Coriolis term.
 UV_U3HADVECTION     Third-order upstream horizontal advection of 3D momentum.
 UV_C4VADVECTION     Fourth-order centered vertical advection of momentum.
 UV_DRAG_GRID        Spatially varying linear drag coefficient.
 UV_LDRAG            Linear bottom stress.
 UV_TIDES            Add tidal currents to 2D momentum climatologies.
 UV_VIS2             Harmonic mixing of momentum.
 VAR_RHO_2D          Variable density barotropic mode.
 VISC_GRID           Horizontal viscosity coefficient scaled by grid size.
 VISC_3DCOEF         Horizontal, time-dependent 3D viscosity coefficient.

 Process Information:

 Node #  0 (pid=   38072) is active.
 Node #  1 (pid=   38073) is active.
 Node #  2 (pid=   38074) is active.
 Node #  4 (pid=   38076) is active.
 Node #  5 (pid=   38077) is active.
 Node #  6 (pid=   38078) is active.
 Node #  7 (pid=   38079) is active.
 Node #  8 (pid=   38080) is active.
 Node # 10 (pid=   38082) is active.
 Node # 11 (pid=   38083) is active.
 Node # 12 (pid=   38084) is active.
 Node # 57 (pid=   49555) is active.
 Node #  3 (pid=   38075) is active.
 Node #  9 (pid=   38081) is active.
 Node #107 (pid=  124128) is active.
 Node # 43 (pid=  109136) is active.
 Node # 14 (pid=  195064) is active.
 Node # 91 (pid=  179912) is active.
 Node #108 (pid=  124129) is active.
 Node # 64 (pid=   49562) is active.
 Node # 27 (pid=  195077) is active.
 Node #103 (pid=  179924) is active.
 Node #111 (pid=  124132) is active.
 Node # 66 (pid=   49564) is active.
 Node # 37 (pid=  109130) is active.
 Node # 31 (pid=  195081) is active.
 Node # 88 (pid=  179909) is active.
 Node #124 (pid=  124145) is active.
 Node # 67 (pid=   49565) is active.
 Node # 48 (pid=  109141) is active.
 Node # 18 (pid=  195068) is active.
 Node # 98 (pid=  179919) is active.
 Node #125 (pid=  124146) is active.
 Node # 56 (pid=   49554) is active.
 Node # 50 (pid=  109143) is active.
 Node # 29 (pid=  195079) is active.
 Node # 80 (pid=  179901) is active.
 Node #126 (pid=  124147) is active.
 Node # 59 (pid=   49557) is active.
 Node # 52 (pid=  109145) is active.
 Node # 25 (pid=  195075) is active.
 Node # 92 (pid=  179913) is active.
 Node #127 (pid=  124148) is active.
 Node # 60 (pid=   49558) is active.
 Node # 33 (pid=  109126) is active.
 Node # 30 (pid=  195080) is active.
 Node #100 (pid=  179921) is active.
 Node #114 (pid=  124135) is active.
 Node # 61 (pid=   49559) is active.
 Node # 35 (pid=  109128) is active.
 Node # 21 (pid=  195071) is active.
 Node # 95 (pid=  179916) is active.
 Node #117 (pid=  124138) is active.
 Node # 62 (pid=   49560) is active.
 Node # 36 (pid=  109129) is active.
 Node # 19 (pid=  195069) is active.
 Node # 96 (pid=  179917) is active.
 Node #118 (pid=  124139) is active.
 Node # 63 (pid=   49561) is active.
 Node # 44 (pid=  109137) is active.
 Node # 13 (pid=  195063) is active.
 Node # 99 (pid=  179920) is active.
 Node #110 (pid=  124131) is active.
 Node # 65 (pid=   49563) is active.
 Node # 46 (pid=  109139) is active.
 Node # 22 (pid=  195072) is active.
 Node # 81 (pid=  179902) is active.
 Node #113 (pid=  124134) is active.
 Node # 68 (pid=   49566) is active.
 Node # 34 (pid=  109127) is active.
 Node # 15 (pid=  195065) is active.
 Node # 89 (pid=  179910) is active.
 Node #109 (pid=  124130) is active.
 Node # 69 (pid=   49567) is active.
 Node # 54 (pid=  109147) is active.
 Node # 28 (pid=  195078) is active.
 Node # 90 (pid=  179911) is active.
 Node #119 (pid=  124140) is active.
 Node # 70 (pid=   49568) is active.
 Node # 42 (pid=  109135) is active.
 Node # 16 (pid=  195066) is active.
 Node # 87 (pid=  179908) is active.
 Node #122 (pid=  124143) is active.
 Node # 71 (pid=   49569) is active.
 Node # 51 (pid=  109144) is active.
 Node # 26 (pid=  195076) is active.
 Node # 86 (pid=  179907) is active.
 Node #116 (pid=  124137) is active.
 Node # 72 (pid=   49570) is active.
 Node # 38 (pid=  109131) is active.
 Node # 17 (pid=  195067) is active.
 Node # 97 (pid=  179918) is active.
 Node #120 (pid=  124141) is active.
 Node # 73 (pid=   49571) is active.
 Node # 47 (pid=  109140) is active.
 Node # 23 (pid=  195073) is active.
 Node #101 (pid=  179922) is active.
 Node #121 (pid=  124142) is active.
 Node # 74 (pid=   49572) is active.
 Node # 32 (pid=  109125) is active.
 Node # 24 (pid=  195074) is active.
 Node # 82 (pid=  179903) is active.
 Node #105 (pid=  124126) is active.
 Node # 75 (pid=   49573) is active.
 Node # 55 (pid=  109148) is active.
 Node # 20 (pid=  195070) is active.
 Node # 84 (pid=  179905) is active.
 Node #115 (pid=  124136) is active.
 Node # 76 (pid=   49574) is active.
 Node # 41 (pid=  109134) is active.
 Node # 93 (pid=  179914) is active.
 Node #106 (pid=  124127) is active.
 Node # 77 (pid=   49575) is active.
 Node # 49 (pid=  109142) is active.
 Node #102 (pid=  179923) is active.
 Node #104 (pid=  124125) is active.
 Node # 78 (pid=   49576) is active.
 Node # 53 (pid=  109146) is active.
 Node # 94 (pid=  179915) is active.
 Node #112 (pid=  124133) is active.
 Node # 79 (pid=   49577) is active.
 Node # 39 (pid=  109132) is active.
 Node # 83 (pid=  179904) is active.
 Node #123 (pid=  124144) is active.
 Node # 58 (pid=   49556) is active.
 Node # 45 (pid=  109138) is active.
 Node # 85 (pid=  179906) is active.
 Node # 40 (pid=  109133) is active.

 INITIAL: Configuring and initializing forward nonlinear model ...
 *******

 Vertical S-coordinate System, Grid 01:

 level   S-coord     Cs-curve   Z   at hmin       at hc    half way     at hmax

    40   0.0000000   0.0000000        0.000       0.000       0.000       0.000
    39  -0.0250000  -0.0000649       -0.240      -3.133      -5.894      -6.320
    38  -0.0500000  -0.0002615       -0.481      -6.283     -12.120     -13.332
    37  -0.0750000  -0.0005958       -0.721      -9.449     -18.695     -21.069
    36  -0.1000000  -0.0010779       -0.962     -12.635     -25.643     -29.584
    35  -0.1250000  -0.0017224       -1.203     -15.840     -33.001     -38.953
    34  -0.1500000  -0.0025489       -1.443     -19.069     -40.818     -49.279
    33  -0.1750000  -0.0035823       -1.684     -22.323     -49.158     -60.694
    32  -0.2000000  -0.0048536       -1.925     -25.607     -58.100     -73.360
    31  -0.2250000  -0.0064012       -2.166     -28.925     -67.738     -87.480
    30  -0.2500000  -0.0082712       -2.407     -32.284     -78.192    -103.296
    29  -0.2750000  -0.0105194       -2.648     -35.690     -89.600    -121.102
    28  -0.3000000  -0.0132122       -2.890     -39.152    -102.132    -141.247
    27  -0.3250000  -0.0164290       -3.131     -42.679    -115.987    -164.148
    26  -0.3500000  -0.0202635       -3.373     -46.283    -131.402    -190.300
    25  -0.3750000  -0.0248266       -3.615     -49.978    -148.657    -220.283
    24  -0.4000000  -0.0302484       -3.858     -53.781    -168.082    -254.785
    23  -0.4250000  -0.0366816       -4.101     -57.710    -190.061    -294.608
    22  -0.4500000  -0.0443042       -4.344     -61.788    -215.044    -340.687
    21  -0.4750000  -0.0533226       -4.588     -66.040    -243.553    -394.110
    20  -0.5000000  -0.0639753       -4.832     -70.497    -276.189    -456.131
    19  -0.5250000  -0.0765351       -5.078     -75.192    -313.643    -528.185
    18  -0.5500000  -0.0913119       -5.324     -80.164    -356.696    -611.902
    17  -0.5750000  -0.1086538       -5.571     -85.457    -406.228    -709.113
    16  -0.6000000  -0.1289464       -5.819     -91.118    -463.213    -821.848
    15  -0.6250000  -0.1526095       -6.068     -97.201    -528.712    -952.315
    14  -0.6500000  -0.1800894       -6.319    -103.761    -603.850   -1102.862
    13  -0.6750000  -0.2118460       -6.572    -110.856    -689.791   -1275.907
    12  -0.7000000  -0.2483317       -6.826    -118.541    -787.677   -1473.832
    11  -0.7250000  -0.2899613       -7.083    -126.870    -898.555   -1698.818
    10  -0.7500000  -0.3370698       -7.341    -135.884   -1023.271   -1952.628
     9  -0.7750000  -0.3898574       -7.602    -145.607   -1162.332   -2236.315
     8  -0.8000000  -0.4483212       -7.865    -156.040   -1315.730   -2549.864
     7  -0.8250000  -0.5121761       -8.130    -167.147   -1482.745   -2891.774
     6  -0.8500000  -0.5807728       -8.396    -178.847   -1661.736   -3258.631
     5  -0.8750000  -0.6530234       -8.665    -191.003   -1849.957   -3644.710
     4  -0.9000000  -0.7273553       -8.934    -203.419   -2043.434   -4041.739
     3  -0.9250000  -0.8017196       -9.203    -215.840   -2236.994   -4438.938
     2  -0.9500000  -0.8736807       -9.471    -227.960   -2424.483   -4823.494
     1  -0.9750000  -0.9406122       -9.737    -239.452   -2599.268   -5181.590
     0  -1.0000000  -1.0000000      -10.000    -250.000   -2755.000   -5500.000

 Time Splitting Weights for Grid 01:    ndtfast =  30    nfast =  42
 ==================================

    Primary            Secondary            Accumulated to Current Step

  1-0.0008094437383769 0.0333333333333333-0.0008094437383769 0.0333333333333333
  2-0.0014053566728197 0.0333603147912792-0.0022148004111966 0.0666936481246126
  3-0.0017877524645903 0.0334071600137066-0.0040025528757869 0.1001008081383191
  4-0.0019566842408176 0.0334667517625262-0.0059592371166046 0.1335675599008453
  5-0.0019122901320372 0.0335319745705535-0.0078715272486418 0.1670995344713988
  6-0.0016548570247459 0.0335957175749547-0.0095263842733877 0.2006952520463536
  7-0.0011849025289723 0.0336508794757796-0.0107112868023600 0.2343461315221331
  8-0.0005032751608631 0.0336903762267453-0.0112145619632232 0.2680365077488784
  9 0.0003887272597151 0.0337071520654408-0.0108258347035081 0.3017436598143192
 10 0.0014892209965583 0.0336941944901169-0.0093366137069498 0.3354378543044362
 11 0.0027955815694920 0.0336445537902317-0.0065410321374578 0.3690824080946679
 12 0.0043042707117221 0.0335513677379153-0.0022367614257356 0.4026337758325831
 13 0.0060106451121704 0.0334078920475245 0.0037738836864348 0.4360416678801076
 14 0.0079087469427945 0.0332075372104522 0.0116826306292293 0.4692492050905598
 15 0.0099910761708920 0.0329439123123590 0.0216737068001213 0.5021931174029188
 16 0.0122483446563884 0.0326108764399960 0.0339220514565097 0.5348039938429148
 17 0.0146692120341107 0.0322025982847830 0.0485912634906204 0.5670065921276978
 18 0.0172400033810439 0.0317136245503127 0.0658312668716643 0.5987202166780105
 19 0.0199444086685725 0.0311389577709445 0.0857756755402368 0.6298591744489550
 20 0.0227631639997064 0.0304741441486588 0.1085388395399432 0.6603333185976138
 21 0.0256737146312911 0.0297153720153352 0.1342125541712342 0.6900486906129490
 22 0.0286498597812016 0.0288595815276255 0.1628624139524359 0.7189082721405746
 23 0.0316613792205220 0.0279045862015855 0.1945237931729578 0.7468128583421600
 24 0.0346736416507075 0.0268492068942347 0.2291974348236653 0.7736620652363948
 25 0.0376471948657328 0.0256934188392112 0.2668446296893981 0.7993554840756060
 26 0.0405373376992232 0.0244385123436867 0.3073819673886213 0.8237939964192927
 27 0.0432936737565710 0.0230872677537126 0.3506756411451924 0.8468812641730054
 28 0.0458596469320356 0.0216441452951603 0.3965352880772280 0.8685254094681656
 29 0.0481720587108284 0.0201154903974257 0.4447073467880565 0.8886408998655914
 30 0.0501605672561820 0.0185097551070648 0.4948679140442384 0.9071506549726561
 31 0.0517471682814030 0.0168377361985254 0.5466150823256415 0.9239883911711815
 32 0.0528456577069106 0.0151128305891453 0.5994607400325521 0.9391012217603267
 33 0.0533610761022577 0.0133513086655816 0.6528218161348098 0.9524525304259084
 34 0.0531891349131379 0.0115726061288397 0.7060109510479478 0.9640251365547481
 35 0.0522156244733761 0.0097996349650684 0.7582265755213239 0.9738247715198165
 36 0.0503158038019030 0.0080591141492892 0.8085423793232269 0.9818838856691057
 37 0.0473537721847153 0.0063819206892258 0.8558961515079423 0.9882658063583315
 38 0.0431818225418188 0.0048034616164019 0.8990779740497611 0.9930692679747334
 39 0.0376397765791564 0.0033640675316746 0.9367177506289175 0.9964333355064080
 40 0.0305543017255206 0.0021094083123694 0.9672720523544381 0.9985427438187774
 41 0.0217382098544504 0.0010909315881854 0.9890102622088885 0.9996336754069628
 42 0.0109897377911118 0.0003663245930371 1.0000000000000004 0.9999999999999999

 ndtfast, nfast =   30  42   nfast/ndtfast =  1.40000

 Centers of gravity and integrals (values must be 1, 1, approx 1/2, 1, 1):

    1.000000000000 1.047601458608 0.523800729304 1.000000000000 1.000000000000

 Power filter parameters, Fgamma, gamma =  0.28400   0.18933

 Metrics information for Grid 01:
 ===============================

 Minimum X-grid spacing, DXmin =  6.34996262E+00 km
 Maximum X-grid spacing, DXmax =  7.04326282E+00 km
 Minimum Y-grid spacing, DYmin =  6.33272836E+00 km
 Maximum Y-grid spacing, DYmax =  7.01476579E+00 km
 Minimum Z-grid spacing, DZmin =  2.40409568E-01 m
 Maximum Z-grid spacing, DZmax =  3.97198972E+02 m

 Minimum barotropic Courant Number =  1.59566865E-02
 Maximum barotropic Courant Number =  3.91944804E-01
 Maximum Coriolis   Courant Number =  2.74193593E-02

 Horizontal mixing scaled by grid size, GRDMAX =  7.02260379E+00 km

 Minimum horizontal viscosity coefficient =  5.28444970E+01 m2/s
 Maximum horizontal viscosity coefficient =  5.85216983E+01 m2/s
