
 Model Input Parameters:  ROMS/TOMS version 3.7  
                          Monday - December 7, 2020 -  2:21:16 PM
 -----------------------------------------------------------------------------

 Northwest Atlantic 7km Grid

 Operating system : Linux
 CPU/hardware     : x86_64
 Compiler system  : ifort
 Compiler command : /apps2/mpich2/1.5-ics/bin/mpif90
 Compiler flags   : -heap-arrays -fp-model precise -ip -O3 -free -free

 Input Script  : 

 SVN Root URL  : https:://myroms.org/svn/src
 SVN Revision  : exported

 Local Root    : /gpfs/scratchfs1/kmm18005-lab/myromsdir/roms
 Header Dir    : /gpfs/scratchfs1/kmm18005-lab/myromsdir/roms/User/Include
 Header file   : nwa.h
 Analytical Dir: /gpfs/scratchfs1/kmm18005-lab/myromsdir/roms/ROMS/Functionals

 Resolution, Grid 01: 0720x0360x040,  Parallel Nodes: 192,  Tiling: 012x016


 Physical Parameters, Grid: 01
 =============================

     100000  ntimes            Number of timesteps for 3-D equations.
    240.000  dt                Timestep size (s) for 3-D equations.
         30  ndtfast           Number of timesteps for 2-D equations between
                                 each 3D timestep.
          1  ERstr             Starting ensemble/perturbation run number.
          1  ERend             Ending ensemble/perturbation run number.
          0  nrrec             Number of restart records to read from disk.
          T  LcycleRST         Switch to recycle time-records in restart file.
       1800  nRST              Number of timesteps between the writing of data
                                 into restart fields.
          1  ninfo             Number of timesteps between print of information
                                 to standard output.
          F  ldefout           Switch to create a new output NetCDF file(s).
        360  nHIS              Number of timesteps between the writing fields
                                 into history file.
        360  ndefHIS           Number of timesteps between creation of new
                                 history files.
          0  nQCK              Number of timesteps between the writing fields
                                 into quicksave file.
          1  ntsAVG            Starting timestep for the accumulation of output
                                 time-averaged data.
        360  nAVG              Number of timesteps between the writing of
                                 time-averaged data into averages file.
        360  ndefAVG           Number of timesteps between creation of new
                                 time-averaged file.
 5.0000E+00  nl_tnu2(01)       NLM Horizontal, harmonic mixing coefficient
                                 (m2/s) for tracer 01: temp
 5.0000E+00  nl_tnu2(02)       NLM Horizontal, harmonic mixing coefficient
                                 (m2/s) for tracer 02: salt
 2.5000E+01  nl_visc2          NLM Horizontal, harmonic mixing coefficient
                                 (m2/s) for momentum.
          F  LuvSponge         Turning OFF sponge on horizontal momentum.
          F  LtracerSponge(01) Turning OFF sponge on tracer 01: temp
          F  LtracerSponge(02) Turning OFF sponge on tracer 02: salt
 1.0000E-06  Akt_bak(01)       Background vertical mixing coefficient (m2/s)
                                 for tracer 01: temp
 1.0000E-06  Akt_bak(02)       Background vertical mixing coefficient (m2/s)
                                 for tracer 02: salt
 1.0000E-05  Akv_bak           Background vertical mixing coefficient (m2/s)
                                 for momentum.
 3.0000E-04  rdrg              Linear bottom drag coefficient (m/s).
 3.0000E-03  rdrg2             Quadratic bottom drag coefficient.
 2.0000E-02  Zob               Bottom roughness (m).
 1.0000E+01  blk_ZQ            Height (m) of surface air humidity measurement.
 1.0000E+01  blk_ZT            Height (m) of surface air temperature measurement.
 1.0000E+01  blk_ZW            Height (m) of surface winds measurement.
          1  lmd_Jwt           Jerlov water type.
          2  Vtransform        S-coordinate transformation equation.
          4  Vstretching       S-coordinate stretching function.
 7.0000E+00  theta_s           S-coordinate surface control parameter.
 2.0000E+00  theta_b           S-coordinate bottom  control parameter.
    250.000  Tcline            S-coordinate surface/bottom layer width (m) used
                                 in vertical coordinate stretching.
   1025.000  rho0              Mean density (kg/m3) for Boussinesq approximation.
  41288.042  dstart            Time-stamp assigned to model initialization (days).
     -1.000  tide_start        Reference time origin for tidal forcing (days).
19000101.00  time_ref          Reference time for units attribute (yyyymmdd.dd)
 3.6000E+02  Tnudg(01)         Nudging/relaxation time scale (days)
                                 for tracer 01: temp
 3.6000E+02  Tnudg(02)         Nudging/relaxation time scale (days)
                                 for tracer 02: salt
 9.0000E+01  Tnudg_SSS         Nudging/relaxation time scale (days)
                                 for sea surface salinity.
 1.0000E-01  sss_mismatch_thresdifference in SSS that triggers correction
                                 for sea surface salinity.
 3.6000E+02  Znudg             Nudging/relaxation time scale (days)
                                 for free-surface.
 3.6000E+02  M2nudg            Nudging/relaxation time scale (days)
                                 for 2D momentum.
 3.6000E+02  M3nudg            Nudging/relaxation time scale (days)
                                 for 3D momentum.
 1.2000E+02  obcfac            Factor between passive and active
                                 open boundary conditions.
          F  VolCons(1)        NLM western  edge boundary volume conservation.
          F  VolCons(2)        NLM southern edge boundary volume conservation.
          F  VolCons(3)        NLM eastern  edge boundary volume conservation.
          F  VolCons(4)        NLM northern edge boundary volume conservation.
     10.000  T0                Background potential temperature (C) constant.
     35.000  S0                Background salinity (PSU) constant.
      1.000  gamma2            Slipperiness variable: free-slip (1.0) or 
                                                      no-slip (-1.0).
          F  LuvSrc            Turning OFF momentum point Sources/Sinks.
          F  LwSrc             Turning OFF volume influx point Sources/Sinks.
          F  LtracerSrc(01)    Turning OFF point Sources/Sinks on tracer 01: temp
          F  LtracerSrc(02)    Turning OFF point Sources/Sinks on tracer 02: salt
          T  LsshCLM           Turning ON  processing of SSH climatology.
          T  Lm2CLM            Turning ON  processing of 2D momentum climatology.
          T  Lm3CLM            Turning ON  processing of 3D momentum climatology.
          T  LtracerCLM(01)    Turning ON  processing of climatology tracer 01: temp
          T  LtracerCLM(02)    Turning ON  processing of climatology tracer 02: salt
          T  LnudgeM2CLM       Turning ON  nudging of 2D momentum climatology.
          T  LnudgeM3CLM       Turning ON  nudging of 3D momentum climatology.
          T  LnudgeTCLM(01)    Turning ON  nudging of climatology tracer 01: temp
          T  LnudgeTCLM(02)    Turning ON  nudging of climatology tracer 02: salt

          T  Hout(idFsur)      Write out free-surface.
          T  Hout(idUbar)      Write out 2D U-momentum component.
          T  Hout(idVbar)      Write out 2D V-momentum component.
          T  Hout(idUvel)      Write out 3D U-momentum component.
          T  Hout(idVvel)      Write out 3D V-momentum component.
          T  Hout(idWvel)      Write out W-momentum component.
          T  Hout(idOvel)      Write out omega vertical velocity.
          T  Hout(idTvar)      Write out tracer 01: temp
          T  Hout(idTvar)      Write out tracer 02: salt
          T  Hout(idTsur)      Write out surface net heat flux.
          T  Hout(idTsur)      Write out surface net salt flux.
          T  Hout(idSrad)      Write out shortwave radiation flux.
          T  Hout(idLrad)      Write out longwave radiation flux.
          T  Hout(idLhea)      Write out latent heat flux.
          T  Hout(idShea)      Write out sensible heat flux.
          T  Hout(idEmPf)      Write out E-P flux.
          T  Hout(idevap)      Write out evaporation rate.
          T  Hout(idrain)      Write out rain rate.
          T  Hout(idVvis)      Write out vertical viscosity: AKv.
          T  Hout(idTdif)      Write out vertical diffusion: AKt(itemp).
          T  Hout(idHsbl)      Write out depth of surface boundary layer.

          T  Aout(idFsur)      Write out averaged free-surface.
          T  Aout(idUbar)      Write out averaged 2D U-momentum component.
          T  Aout(idVbar)      Write out averaged 2D V-momentum component.
          T  Aout(idUvel)      Write out averaged 3D U-momentum component.
          T  Aout(idVvel)      Write out averaged 3D V-momentum component.
          T  Aout(idWvel)      Write out averaged W-momentum component.
          T  Aout(idOvel)      Write out averaged omega vertical velocity.
          T  Aout(idTvar)      Write out averaged tracer 01: temp
          T  Aout(idTvar)      Write out averaged tracer 02: salt
          T  Aout(idVsms)      Write out averaged surface V-momentum stress.
          T  Aout(idRunoff)    Write out averaged surface fresh water input via runoff.
          T  Aout(idPair)      Write out averaged surface air pressure.
          T  Aout(idUair)      Write out averaged surface U-wind component.
          T  Aout(idVair)      Write out averaged surface V-wind component.
          T  Aout(idTsur)      Write out averaged surface net heat flux.
          T  Aout(idTsur)      Write out averaged surface net salt flux.
          T  Aout(idSrad)      Write out averaged shortwave radiation flux.
          T  Aout(idLrad)      Write out averaged longwave radiation flux.
          T  Aout(idLhea)      Write out averaged latent heat flux.
          T  Aout(idShea)      Write out averaged sensible heat flux.
          T  Aout(idevap)      Write out averaged evaporation rate.
          T  Aout(idrain)      Write out averaged rain rate.
          T  Aout(idDano)      Write out averaged density anomaly.
          T  Aout(idVvis)      Write out averaged vertical viscosity: AKv.
          T  Aout(idTdif)      Write out averaged vertical diffusion: AKt(itemp).
          T  Aout(idHsbl)      Write out averaged depth of surface boundary layer.

 Output/Input Files:

             Output Restart File:  /gpfs/scratchfs1/kmm18005-lab/myromsdir/output/lastrun/NWA-KM_rst.nc
        Prefix for History Files:  /gpfs/scratchfs1/kmm18005-lab/myromsdir/output/lastrun/NWA-KM_his
       Prefix for Averages Files:  /gpfs/scratchfs1/kmm18005-lab/myromsdir/output/lastrun/NWA-KM_avg
                 Input Grid File:  /gpfs/scratchfs1/kmm18005-lab/myromsdir/input/NWA_grd.nc
    Input Nonlinear Initial File:  /gpfs/scratchfs1/kmm18005-lab/myromsdir/input/NWA_ic_1994_to_2013.nc
           Input Forcing File 01:  /gpfs/scratchfs1/kmm18005-lab/myromsdir/input/MERRA/MERRA_lwrad_down_2009-2014_3hours_corr.nc
           Input Forcing File 02:  /gpfs/scratchfs1/kmm18005-lab/myromsdir/input/MERRA/MERRA_Pair_2009-2014_3hours.nc
           Input Forcing File 03:  /gpfs/scratchfs1/kmm18005-lab/myromsdir/input/MERRA/MERRA_Qair_2009-2014_3hours.nc
           Input Forcing File 04:  /gpfs/scratchfs1/kmm18005-lab/myromsdir/input/MERRA/MERRA_rain_2009-2014_3hours.nc
           Input Forcing File 05:  /gpfs/scratchfs1/kmm18005-lab/myromsdir/input/MERRA/MERRA_swrad_2009-2014_3hours_corr.nc
           Input Forcing File 06:  /gpfs/scratchfs1/kmm18005-lab/myromsdir/input/MERRA/MERRA_Tair_2009-2014_3hours.nc
           Input Forcing File 07:  /gpfs/scratchfs1/kmm18005-lab/myromsdir/input/MERRA/MERRA_Uwind_2009-2014_3hours.nc
           Input Forcing File 08:  /gpfs/scratchfs1/kmm18005-lab/myromsdir/input/MERRA/MERRA_Vwind_2009-2014_3hours.nc
           Input Forcing File 09:  /gpfs/scratchfs1/kmm18005-lab/myromsdir/input/runoff_NWA_daitren_inter_annual_1948-2015.nc
           Input Forcing File 10:  /gpfs/scratchfs1/kmm18005-lab/myromsdir/input/sss_monthly_climato_flooded.nc
           Input Forcing File 11:  /gpfs/scratchfs1/kmm18005-lab/myromsdir/input/NWA_tides_otps.nc
           Input Forcing File 12:  /gpfs/scratchfs1/kmm18005-lab/myromsdir/input/composite_CO2_MLO+GLO.nc
           Input Forcing File 13:  /gpfs/scratchfs1/kmm18005-lab/myromsdir/input/Soluble_Fe_Flux_PI_ROMS.nc
           Input Forcing File 14:  /gpfs/scratchfs1/kmm18005-lab/myromsdir/input/iron_sediment_NWA.nc
           Input Forcing File 15:  /gpfs/scratchfs1/kmm18005-lab/myromsdir/input/Mineral_Fe_Flux_PI_ROMS.nc
           Input Forcing File 16:  /gpfs/scratchfs1/kmm18005-lab/myromsdir/input/NEWS/NWA_river_ldon_runoff_bio_NEWS_y1948-2015.nc
           Input Forcing File 17:  /gpfs/scratchfs1/kmm18005-lab/myromsdir/input/NEWS/NWA_river_ndet_runoff_bio_NEWS_y1948-2015.nc
           Input Forcing File 18:  /gpfs/scratchfs1/kmm18005-lab/myromsdir/input/NEWS/NWA_river_no3_runoff_bio_NEWS_y1948-2015.nc
           Input Forcing File 19:  /gpfs/scratchfs1/kmm18005-lab/myromsdir/input/NEWS/NWA_river_sldon_runoff_bio_NEWS_y1948-2015.nc
           Input Forcing File 20:  /gpfs/scratchfs1/kmm18005-lab/myromsdir/input/NEWS/NWA_river_srdon_runoff_bio_NEWS_y1948-2015.nc
           Input Forcing File 21:  /gpfs/scratchfs1/kmm18005-lab/myromsdir/input/NEWS/NWA_river_po4_runoff_bio_NEWS_y1948-2015.nc
           Input Forcing File 22:  /gpfs/scratchfs1/kmm18005-lab/myromsdir/input/NEWS/NWA_river_ldop_runoff_bio_NEWS_y1948-2015.nc
           Input Forcing File 23:  /gpfs/scratchfs1/kmm18005-lab/myromsdir/input/NEWS/NWA_river_sldop_runoff_bio_NEWS_y1948-2015.nc
           Input Forcing File 24:  /gpfs/scratchfs1/kmm18005-lab/myromsdir/input/NEWS/NWA_river_srdop_runoff_bio_NEWS_y1948-2015.nc
          Input Climatology File:  /gpfs/scratchfs1/kmm18005-lab/myromsdir/input/clim_SODA/NWA_clim_SODA3.3.1_y2012.nc
                                   /gpfs/scratchfs1/kmm18005-lab/myromsdir/input/clim_SODA/NWA_clim_SODA3.3.1_y2013.nc
                                   /gpfs/scratchfs1/kmm18005-lab/myromsdir/input/clim_SODA/NWA_clim_SODA3.3.1_y2014.nc
          Input Climatology File:  /gpfs/scratchfs1/kmm18005-lab/myromsdir/input/NWA_clim_bio.nc
   Input Nudge Coefficients File:  /gpfs/scratchfs1/kmm18005-lab/myromsdir/input/NWA_nudging_coef.nc
         Input Boundary File 01:  /gpfs/scratchfs1/kmm18005-lab/myromsdir/input/bdry_SODA/NWA_bdry_SODA3.3.1_y2012.nc
                                   /gpfs/scratchfs1/kmm18005-lab/myromsdir/input/bdry_SODA/NWA_bdry_SODA3.3.1_y2013.nc
                                   /gpfs/scratchfs1/kmm18005-lab/myromsdir/input/bdry_SODA/NWA_bdry_SODA3.3.1_y2014.nc
         Input Boundary File 02:  /gpfs/scratchfs1/kmm18005-lab/myromsdir/input/NWA_bdry_bio.nc
         Biology Parameters File:  /gpfs/scratchfs1/kmm18005-lab/myromsdir/roms/bio_Cobalt.in

 Tile partition information for Grid 01:  0720x0360x0040  tiling: 012x016

     tile     Istr     Iend     Jstr     Jend     Npts

 Number of tracers:           26
        0        1       60        1       19    45600
        1       61      120        1       19    45600
        2      121      180        1       19    45600
        3      181      240        1       19    45600
        4      241      300        1       19    45600
        5      301      360        1       19    45600
        6      361      420        1       19    45600
        7      421      480        1       19    45600
        8      481      540        1       19    45600
        9      541      600        1       19    45600
       10      601      660        1       19    45600
       11      661      720        1       19    45600
       12        1       60       20       42    55200
       13       61      120       20       42    55200
       14      121      180       20       42    55200
       15      181      240       20       42    55200
       16      241      300       20       42    55200
       17      301      360       20       42    55200
       18      361      420       20       42    55200
       19      421      480       20       42    55200
       20      481      540       20       42    55200
       21      541      600       20       42    55200
       22      601      660       20       42    55200
       23      661      720       20       42    55200
       24        1       60       43       65    55200
       25       61      120       43       65    55200
       26      121      180       43       65    55200
       27      181      240       43       65    55200
       28      241      300       43       65    55200
       29      301      360       43       65    55200
       30      361      420       43       65    55200
       31      421      480       43       65    55200
       32      481      540       43       65    55200
       33      541      600       43       65    55200
       34      601      660       43       65    55200
       35      661      720       43       65    55200
       36        1       60       66       88    55200
       37       61      120       66       88    55200
       38      121      180       66       88    55200
       39      181      240       66       88    55200
       40      241      300       66       88    55200
       41      301      360       66       88    55200
       42      361      420       66       88    55200
       43      421      480       66       88    55200
       44      481      540       66       88    55200
       45      541      600       66       88    55200
       46      601      660       66       88    55200
       47      661      720       66       88    55200
       48        1       60       89      111    55200
       49       61      120       89      111    55200
       50      121      180       89      111    55200
       51      181      240       89      111    55200
       52      241      300       89      111    55200
       53      301      360       89      111    55200
       54      361      420       89      111    55200
       55      421      480       89      111    55200
       56      481      540       89      111    55200
       57      541      600       89      111    55200
       58      601      660       89      111    55200
       59      661      720       89      111    55200
       60        1       60      112      134    55200
       61       61      120      112      134    55200
       62      121      180      112      134    55200
       63      181      240      112      134    55200
       64      241      300      112      134    55200
       65      301      360      112      134    55200
       66      361      420      112      134    55200
       67      421      480      112      134    55200
       68      481      540      112      134    55200
       69      541      600      112      134    55200
       70      601      660      112      134    55200
       71      661      720      112      134    55200
       72        1       60      135      157    55200
       73       61      120      135      157    55200
       74      121      180      135      157    55200
       75      181      240      135      157    55200
       76      241      300      135      157    55200
       77      301      360      135      157    55200
       78      361      420      135      157    55200
       79      421      480      135      157    55200
       80      481      540      135      157    55200
       81      541      600      135      157    55200
       82      601      660      135      157    55200
       83      661      720      135      157    55200
       84        1       60      158      180    55200
       85       61      120      158      180    55200
       86      121      180      158      180    55200
       87      181      240      158      180    55200
       88      241      300      158      180    55200
       89      301      360      158      180    55200
       90      361      420      158      180    55200
       91      421      480      158      180    55200
       92      481      540      158      180    55200
       93      541      600      158      180    55200
       94      601      660      158      180    55200
       95      661      720      158      180    55200
       96        1       60      181      203    55200
       97       61      120      181      203    55200
       98      121      180      181      203    55200
       99      181      240      181      203    55200
      100      241      300      181      203    55200
      101      301      360      181      203    55200
      102      361      420      181      203    55200
      103      421      480      181      203    55200
      104      481      540      181      203    55200
      105      541      600      181      203    55200
      106      601      660      181      203    55200
      107      661      720      181      203    55200
      108        1       60      204      226    55200
      109       61      120      204      226    55200
      110      121      180      204      226    55200
      111      181      240      204      226    55200
      112      241      300      204      226    55200
      113      301      360      204      226    55200
      114      361      420      204      226    55200
      115      421      480      204      226    55200
      116      481      540      204      226    55200
      117      541      600      204      226    55200
      118      601      660      204      226    55200
      119      661      720      204      226    55200
      120        1       60      227      249    55200
      121       61      120      227      249    55200
      122      121      180      227      249    55200
      123      181      240      227      249    55200
      124      241      300      227      249    55200
      125      301      360      227      249    55200
      126      361      420      227      249    55200
      127      421      480      227      249    55200
      128      481      540      227      249    55200
      129      541      600      227      249    55200
      130      601      660      227      249    55200
      131      661      720      227      249    55200
      132        1       60      250      272    55200
      133       61      120      250      272    55200
      134      121      180      250      272    55200
      135      181      240      250      272    55200
      136      241      300      250      272    55200
      137      301      360      250      272    55200
      138      361      420      250      272    55200
      139      421      480      250      272    55200
      140      481      540      250      272    55200
      141      541      600      250      272    55200
      142      601      660      250      272    55200
      143      661      720      250      272    55200
      144        1       60      273      295    55200
      145       61      120      273      295    55200
      146      121      180      273      295    55200
      147      181      240      273      295    55200
      148      241      300      273      295    55200
      149      301      360      273      295    55200
      150      361      420      273      295    55200
      151      421      480      273      295    55200
      152      481      540      273      295    55200
      153      541      600      273      295    55200
      154      601      660      273      295    55200
      155      661      720      273      295    55200
      156        1       60      296      318    55200
      157       61      120      296      318    55200
      158      121      180      296      318    55200
      159      181      240      296      318    55200
      160      241      300      296      318    55200
      161      301      360      296      318    55200
      162      361      420      296      318    55200
      163      421      480      296      318    55200
      164      481      540      296      318    55200
      165      541      600      296      318    55200
      166      601      660      296      318    55200
      167      661      720      296      318    55200
      168        1       60      319      341    55200
      169       61      120      319      341    55200
      170      121      180      319      341    55200
      171      181      240      319      341    55200
      172      241      300      319      341    55200
      173      301      360      319      341    55200
      174      361      420      319      341    55200
      175      421      480      319      341    55200
      176      481      540      319      341    55200
      177      541      600      319      341    55200
      178      601      660      319      341    55200
      179      661      720      319      341    55200
      180        1       60      342      360    45600
      181       61      120      342      360    45600
      182      121      180      342      360    45600
      183      181      240      342      360    45600
      184      241      300      342      360    45600
      185      301      360      342      360    45600
      186      361      420      342      360    45600
      187      421      480      342      360    45600
      188      481      540      342      360    45600
      189      541      600      342      360    45600
      190      601      660      342      360    45600
      191      661      720      342      360    45600

 Tile minimum and maximum fractional coordinates for Grid 01:
   (interior points only)

     tile     Xmin     Xmax     Ymin     Ymax     grid

        0     0.50    60.50     0.50    19.50  RHO-points
        1    60.50   120.50     0.50    19.50  RHO-points
        2   120.50   180.50     0.50    19.50  RHO-points
        3   180.50   240.50     0.50    19.50  RHO-points
        4   240.50   300.50     0.50    19.50  RHO-points
        5   300.50   360.50     0.50    19.50  RHO-points
        6   360.50   420.50     0.50    19.50  RHO-points
        7   420.50   480.50     0.50    19.50  RHO-points
        8   480.50   540.50     0.50    19.50  RHO-points
        9   540.50   600.50     0.50    19.50  RHO-points
       10   600.50   660.50     0.50    19.50  RHO-points
       11   660.50   720.50     0.50    19.50  RHO-points
       12     0.50    60.50    19.50    42.50  RHO-points
       13    60.50   120.50    19.50    42.50  RHO-points
       14   120.50   180.50    19.50    42.50  RHO-points
       15   180.50   240.50    19.50    42.50  RHO-points
       16   240.50   300.50    19.50    42.50  RHO-points
       17   300.50   360.50    19.50    42.50  RHO-points
       18   360.50   420.50    19.50    42.50  RHO-points
       19   420.50   480.50    19.50    42.50  RHO-points
       20   480.50   540.50    19.50    42.50  RHO-points
       21   540.50   600.50    19.50    42.50  RHO-points
       22   600.50   660.50    19.50    42.50  RHO-points
       23   660.50   720.50    19.50    42.50  RHO-points
       24     0.50    60.50    42.50    65.50  RHO-points
       25    60.50   120.50    42.50    65.50  RHO-points
       26   120.50   180.50    42.50    65.50  RHO-points
       27   180.50   240.50    42.50    65.50  RHO-points
       28   240.50   300.50    42.50    65.50  RHO-points
       29   300.50   360.50    42.50    65.50  RHO-points
       30   360.50   420.50    42.50    65.50  RHO-points
       31   420.50   480.50    42.50    65.50  RHO-points
       32   480.50   540.50    42.50    65.50  RHO-points
       33   540.50   600.50    42.50    65.50  RHO-points
       34   600.50   660.50    42.50    65.50  RHO-points
       35   660.50   720.50    42.50    65.50  RHO-points
       36     0.50    60.50    65.50    88.50  RHO-points
       37    60.50   120.50    65.50    88.50  RHO-points
       38   120.50   180.50    65.50    88.50  RHO-points
       39   180.50   240.50    65.50    88.50  RHO-points
       40   240.50   300.50    65.50    88.50  RHO-points
       41   300.50   360.50    65.50    88.50  RHO-points
       42   360.50   420.50    65.50    88.50  RHO-points
       43   420.50   480.50    65.50    88.50  RHO-points
       44   480.50   540.50    65.50    88.50  RHO-points
       45   540.50   600.50    65.50    88.50  RHO-points
       46   600.50   660.50    65.50    88.50  RHO-points
       47   660.50   720.50    65.50    88.50  RHO-points
       48     0.50    60.50    88.50   111.50  RHO-points
       49    60.50   120.50    88.50   111.50  RHO-points
       50   120.50   180.50    88.50   111.50  RHO-points
       51   180.50   240.50    88.50   111.50  RHO-points
       52   240.50   300.50    88.50   111.50  RHO-points
       53   300.50   360.50    88.50   111.50  RHO-points
       54   360.50   420.50    88.50   111.50  RHO-points
       55   420.50   480.50    88.50   111.50  RHO-points
       56   480.50   540.50    88.50   111.50  RHO-points
       57   540.50   600.50    88.50   111.50  RHO-points
       58   600.50   660.50    88.50   111.50  RHO-points
       59   660.50   720.50    88.50   111.50  RHO-points
       60     0.50    60.50   111.50   134.50  RHO-points
       61    60.50   120.50   111.50   134.50  RHO-points
       62   120.50   180.50   111.50   134.50  RHO-points
       63   180.50   240.50   111.50   134.50  RHO-points
       64   240.50   300.50   111.50   134.50  RHO-points
       65   300.50   360.50   111.50   134.50  RHO-points
       66   360.50   420.50   111.50   134.50  RHO-points
       67   420.50   480.50   111.50   134.50  RHO-points
       68   480.50   540.50   111.50   134.50  RHO-points
       69   540.50   600.50   111.50   134.50  RHO-points
       70   600.50   660.50   111.50   134.50  RHO-points
       71   660.50   720.50   111.50   134.50  RHO-points
       72     0.50    60.50   134.50   157.50  RHO-points
       73    60.50   120.50   134.50   157.50  RHO-points
       74   120.50   180.50   134.50   157.50  RHO-points
       75   180.50   240.50   134.50   157.50  RHO-points
       76   240.50   300.50   134.50   157.50  RHO-points
       77   300.50   360.50   134.50   157.50  RHO-points
       78   360.50   420.50   134.50   157.50  RHO-points
       79   420.50   480.50   134.50   157.50  RHO-points
       80   480.50   540.50   134.50   157.50  RHO-points
       81   540.50   600.50   134.50   157.50  RHO-points
       82   600.50   660.50   134.50   157.50  RHO-points
       83   660.50   720.50   134.50   157.50  RHO-points
       84     0.50    60.50   157.50   180.50  RHO-points
       85    60.50   120.50   157.50   180.50  RHO-points
       86   120.50   180.50   157.50   180.50  RHO-points
       87   180.50   240.50   157.50   180.50  RHO-points
       88   240.50   300.50   157.50   180.50  RHO-points
       89   300.50   360.50   157.50   180.50  RHO-points
       90   360.50   420.50   157.50   180.50  RHO-points
       91   420.50   480.50   157.50   180.50  RHO-points
       92   480.50   540.50   157.50   180.50  RHO-points
       93   540.50   600.50   157.50   180.50  RHO-points
       94   600.50   660.50   157.50   180.50  RHO-points
       95   660.50   720.50   157.50   180.50  RHO-points
       96     0.50    60.50   180.50   203.50  RHO-points
       97    60.50   120.50   180.50   203.50  RHO-points
       98   120.50   180.50   180.50   203.50  RHO-points
       99   180.50   240.50   180.50   203.50  RHO-points
      100   240.50   300.50   180.50   203.50  RHO-points
      101   300.50   360.50   180.50   203.50  RHO-points
      102   360.50   420.50   180.50   203.50  RHO-points
      103   420.50   480.50   180.50   203.50  RHO-points
      104   480.50   540.50   180.50   203.50  RHO-points
      105   540.50   600.50   180.50   203.50  RHO-points
      106   600.50   660.50   180.50   203.50  RHO-points
      107   660.50   720.50   180.50   203.50  RHO-points
      108     0.50    60.50   203.50   226.50  RHO-points
      109    60.50   120.50   203.50   226.50  RHO-points
      110   120.50   180.50   203.50   226.50  RHO-points
      111   180.50   240.50   203.50   226.50  RHO-points
      112   240.50   300.50   203.50   226.50  RHO-points
      113   300.50   360.50   203.50   226.50  RHO-points
      114   360.50   420.50   203.50   226.50  RHO-points
      115   420.50   480.50   203.50   226.50  RHO-points
      116   480.50   540.50   203.50   226.50  RHO-points
      117   540.50   600.50   203.50   226.50  RHO-points
      118   600.50   660.50   203.50   226.50  RHO-points
      119   660.50   720.50   203.50   226.50  RHO-points
      120     0.50    60.50   226.50   249.50  RHO-points
      121    60.50   120.50   226.50   249.50  RHO-points
      122   120.50   180.50   226.50   249.50  RHO-points
      123   180.50   240.50   226.50   249.50  RHO-points
      124   240.50   300.50   226.50   249.50  RHO-points
      125   300.50   360.50   226.50   249.50  RHO-points
      126   360.50   420.50   226.50   249.50  RHO-points
      127   420.50   480.50   226.50   249.50  RHO-points
      128   480.50   540.50   226.50   249.50  RHO-points
      129   540.50   600.50   226.50   249.50  RHO-points
      130   600.50   660.50   226.50   249.50  RHO-points
      131   660.50   720.50   226.50   249.50  RHO-points
      132     0.50    60.50   249.50   272.50  RHO-points
      133    60.50   120.50   249.50   272.50  RHO-points
      134   120.50   180.50   249.50   272.50  RHO-points
      135   180.50   240.50   249.50   272.50  RHO-points
      136   240.50   300.50   249.50   272.50  RHO-points
      137   300.50   360.50   249.50   272.50  RHO-points
      138   360.50   420.50   249.50   272.50  RHO-points
      139   420.50   480.50   249.50   272.50  RHO-points
      140   480.50   540.50   249.50   272.50  RHO-points
      141   540.50   600.50   249.50   272.50  RHO-points
      142   600.50   660.50   249.50   272.50  RHO-points
      143   660.50   720.50   249.50   272.50  RHO-points
      144     0.50    60.50   272.50   295.50  RHO-points
      145    60.50   120.50   272.50   295.50  RHO-points
      146   120.50   180.50   272.50   295.50  RHO-points
      147   180.50   240.50   272.50   295.50  RHO-points
      148   240.50   300.50   272.50   295.50  RHO-points
      149   300.50   360.50   272.50   295.50  RHO-points
      150   360.50   420.50   272.50   295.50  RHO-points
      151   420.50   480.50   272.50   295.50  RHO-points
      152   480.50   540.50   272.50   295.50  RHO-points
      153   540.50   600.50   272.50   295.50  RHO-points
      154   600.50   660.50   272.50   295.50  RHO-points
      155   660.50   720.50   272.50   295.50  RHO-points
      156     0.50    60.50   295.50   318.50  RHO-points
      157    60.50   120.50   295.50   318.50  RHO-points
      158   120.50   180.50   295.50   318.50  RHO-points
      159   180.50   240.50   295.50   318.50  RHO-points
      160   240.50   300.50   295.50   318.50  RHO-points
      161   300.50   360.50   295.50   318.50  RHO-points
      162   360.50   420.50   295.50   318.50  RHO-points
      163   420.50   480.50   295.50   318.50  RHO-points
      164   480.50   540.50   295.50   318.50  RHO-points
      165   540.50   600.50   295.50   318.50  RHO-points
      166   600.50   660.50   295.50   318.50  RHO-points
      167   660.50   720.50   295.50   318.50  RHO-points
      168     0.50    60.50   318.50   341.50  RHO-points
      169    60.50   120.50   318.50   341.50  RHO-points
      170   120.50   180.50   318.50   341.50  RHO-points
      171   180.50   240.50   318.50   341.50  RHO-points
      172   240.50   300.50   318.50   341.50  RHO-points
      173   300.50   360.50   318.50   341.50  RHO-points
      174   360.50   420.50   318.50   341.50  RHO-points
      175   420.50   480.50   318.50   341.50  RHO-points
      176   480.50   540.50   318.50   341.50  RHO-points
      177   540.50   600.50   318.50   341.50  RHO-points
      178   600.50   660.50   318.50   341.50  RHO-points
      179   660.50   720.50   318.50   341.50  RHO-points
      180     0.50    60.50   341.50   360.50  RHO-points
      181    60.50   120.50   341.50   360.50  RHO-points
      182   120.50   180.50   341.50   360.50  RHO-points
      183   180.50   240.50   341.50   360.50  RHO-points
      184   240.50   300.50   341.50   360.50  RHO-points
      185   300.50   360.50   341.50   360.50  RHO-points
      186   360.50   420.50   341.50   360.50  RHO-points
      187   420.50   480.50   341.50   360.50  RHO-points
      188   480.50   540.50   341.50   360.50  RHO-points
      189   540.50   600.50   341.50   360.50  RHO-points
      190   600.50   660.50   341.50   360.50  RHO-points
      191   660.50   720.50   341.50   360.50  RHO-points

        0     1.00    60.50     0.50    19.50    U-points
        1    60.50   120.50     0.50    19.50    U-points
        2   120.50   180.50     0.50    19.50    U-points
        3   180.50   240.50     0.50    19.50    U-points
        4   240.50   300.50     0.50    19.50    U-points
        5   300.50   360.50     0.50    19.50    U-points
        6   360.50   420.50     0.50    19.50    U-points
        7   420.50   480.50     0.50    19.50    U-points
        8   480.50   540.50     0.50    19.50    U-points
        9   540.50   600.50     0.50    19.50    U-points
       10   600.50   660.50     0.50    19.50    U-points
       11   660.50   720.00     0.50    19.50    U-points
       12     1.00    60.50    19.50    42.50    U-points
       13    60.50   120.50    19.50    42.50    U-points
       14   120.50   180.50    19.50    42.50    U-points
       15   180.50   240.50    19.50    42.50    U-points
       16   240.50   300.50    19.50    42.50    U-points
       17   300.50   360.50    19.50    42.50    U-points
       18   360.50   420.50    19.50    42.50    U-points
       19   420.50   480.50    19.50    42.50    U-points
       20   480.50   540.50    19.50    42.50    U-points
       21   540.50   600.50    19.50    42.50    U-points
       22   600.50   660.50    19.50    42.50    U-points
       23   660.50   720.00    19.50    42.50    U-points
       24     1.00    60.50    42.50    65.50    U-points
       25    60.50   120.50    42.50    65.50    U-points
       26   120.50   180.50    42.50    65.50    U-points
       27   180.50   240.50    42.50    65.50    U-points
       28   240.50   300.50    42.50    65.50    U-points
       29   300.50   360.50    42.50    65.50    U-points
       30   360.50   420.50    42.50    65.50    U-points
       31   420.50   480.50    42.50    65.50    U-points
       32   480.50   540.50    42.50    65.50    U-points
       33   540.50   600.50    42.50    65.50    U-points
       34   600.50   660.50    42.50    65.50    U-points
       35   660.50   720.00    42.50    65.50    U-points
       36     1.00    60.50    65.50    88.50    U-points
       37    60.50   120.50    65.50    88.50    U-points
       38   120.50   180.50    65.50    88.50    U-points
       39   180.50   240.50    65.50    88.50    U-points
       40   240.50   300.50    65.50    88.50    U-points
       41   300.50   360.50    65.50    88.50    U-points
       42   360.50   420.50    65.50    88.50    U-points
       43   420.50   480.50    65.50    88.50    U-points
       44   480.50   540.50    65.50    88.50    U-points
       45   540.50   600.50    65.50    88.50    U-points
       46   600.50   660.50    65.50    88.50    U-points
       47   660.50   720.00    65.50    88.50    U-points
       48     1.00    60.50    88.50   111.50    U-points
       49    60.50   120.50    88.50   111.50    U-points
       50   120.50   180.50    88.50   111.50    U-points
       51   180.50   240.50    88.50   111.50    U-points
       52   240.50   300.50    88.50   111.50    U-points
       53   300.50   360.50    88.50   111.50    U-points
       54   360.50   420.50    88.50   111.50    U-points
       55   420.50   480.50    88.50   111.50    U-points
       56   480.50   540.50    88.50   111.50    U-points
       57   540.50   600.50    88.50   111.50    U-points
       58   600.50   660.50    88.50   111.50    U-points
       59   660.50   720.00    88.50   111.50    U-points
       60     1.00    60.50   111.50   134.50    U-points
       61    60.50   120.50   111.50   134.50    U-points
       62   120.50   180.50   111.50   134.50    U-points
       63   180.50   240.50   111.50   134.50    U-points
       64   240.50   300.50   111.50   134.50    U-points
       65   300.50   360.50   111.50   134.50    U-points
       66   360.50   420.50   111.50   134.50    U-points
       67   420.50   480.50   111.50   134.50    U-points
       68   480.50   540.50   111.50   134.50    U-points
       69   540.50   600.50   111.50   134.50    U-points
       70   600.50   660.50   111.50   134.50    U-points
       71   660.50   720.00   111.50   134.50    U-points
       72     1.00    60.50   134.50   157.50    U-points
       73    60.50   120.50   134.50   157.50    U-points
       74   120.50   180.50   134.50   157.50    U-points
       75   180.50   240.50   134.50   157.50    U-points
       76   240.50   300.50   134.50   157.50    U-points
       77   300.50   360.50   134.50   157.50    U-points
       78   360.50   420.50   134.50   157.50    U-points
       79   420.50   480.50   134.50   157.50    U-points
       80   480.50   540.50   134.50   157.50    U-points
       81   540.50   600.50   134.50   157.50    U-points
       82   600.50   660.50   134.50   157.50    U-points
       83   660.50   720.00   134.50   157.50    U-points
       84     1.00    60.50   157.50   180.50    U-points
       85    60.50   120.50   157.50   180.50    U-points
       86   120.50   180.50   157.50   180.50    U-points
       87   180.50   240.50   157.50   180.50    U-points
       88   240.50   300.50   157.50   180.50    U-points
       89   300.50   360.50   157.50   180.50    U-points
       90   360.50   420.50   157.50   180.50    U-points
       91   420.50   480.50   157.50   180.50    U-points
       92   480.50   540.50   157.50   180.50    U-points
       93   540.50   600.50   157.50   180.50    U-points
       94   600.50   660.50   157.50   180.50    U-points
       95   660.50   720.00   157.50   180.50    U-points
       96     1.00    60.50   180.50   203.50    U-points
       97    60.50   120.50   180.50   203.50    U-points
       98   120.50   180.50   180.50   203.50    U-points
       99   180.50   240.50   180.50   203.50    U-points
      100   240.50   300.50   180.50   203.50    U-points
      101   300.50   360.50   180.50   203.50    U-points
      102   360.50   420.50   180.50   203.50    U-points
      103   420.50   480.50   180.50   203.50    U-points
      104   480.50   540.50   180.50   203.50    U-points
      105   540.50   600.50   180.50   203.50    U-points
      106   600.50   660.50   180.50   203.50    U-points
      107   660.50   720.00   180.50   203.50    U-points
      108     1.00    60.50   203.50   226.50    U-points
      109    60.50   120.50   203.50   226.50    U-points
      110   120.50   180.50   203.50   226.50    U-points
      111   180.50   240.50   203.50   226.50    U-points
      112   240.50   300.50   203.50   226.50    U-points
      113   300.50   360.50   203.50   226.50    U-points
      114   360.50   420.50   203.50   226.50    U-points
      115   420.50   480.50   203.50   226.50    U-points
      116   480.50   540.50   203.50   226.50    U-points
      117   540.50   600.50   203.50   226.50    U-points
      118   600.50   660.50   203.50   226.50    U-points
      119   660.50   720.00   203.50   226.50    U-points
      120     1.00    60.50   226.50   249.50    U-points
      121    60.50   120.50   226.50   249.50    U-points
      122   120.50   180.50   226.50   249.50    U-points
      123   180.50   240.50   226.50   249.50    U-points
      124   240.50   300.50   226.50   249.50    U-points
      125   300.50   360.50   226.50   249.50    U-points
      126   360.50   420.50   226.50   249.50    U-points
      127   420.50   480.50   226.50   249.50    U-points
      128   480.50   540.50   226.50   249.50    U-points
      129   540.50   600.50   226.50   249.50    U-points
      130   600.50   660.50   226.50   249.50    U-points
      131   660.50   720.00   226.50   249.50    U-points
      132     1.00    60.50   249.50   272.50    U-points
      133    60.50   120.50   249.50   272.50    U-points
      134   120.50   180.50   249.50   272.50    U-points
      135   180.50   240.50   249.50   272.50    U-points
      136   240.50   300.50   249.50   272.50    U-points
      137   300.50   360.50   249.50   272.50    U-points
      138   360.50   420.50   249.50   272.50    U-points
      139   420.50   480.50   249.50   272.50    U-points
      140   480.50   540.50   249.50   272.50    U-points
      141   540.50   600.50   249.50   272.50    U-points
      142   600.50   660.50   249.50   272.50    U-points
      143   660.50   720.00   249.50   272.50    U-points
      144     1.00    60.50   272.50   295.50    U-points
      145    60.50   120.50   272.50   295.50    U-points
      146   120.50   180.50   272.50   295.50    U-points
      147   180.50   240.50   272.50   295.50    U-points
      148   240.50   300.50   272.50   295.50    U-points
      149   300.50   360.50   272.50   295.50    U-points
      150   360.50   420.50   272.50   295.50    U-points
      151   420.50   480.50   272.50   295.50    U-points
      152   480.50   540.50   272.50   295.50    U-points
      153   540.50   600.50   272.50   295.50    U-points
      154   600.50   660.50   272.50   295.50    U-points
      155   660.50   720.00   272.50   295.50    U-points
      156     1.00    60.50   295.50   318.50    U-points
      157    60.50   120.50   295.50   318.50    U-points
      158   120.50   180.50   295.50   318.50    U-points
      159   180.50   240.50   295.50   318.50    U-points
      160   240.50   300.50   295.50   318.50    U-points
      161   300.50   360.50   295.50   318.50    U-points
      162   360.50   420.50   295.50   318.50    U-points
      163   420.50   480.50   295.50   318.50    U-points
      164   480.50   540.50   295.50   318.50    U-points
      165   540.50   600.50   295.50   318.50    U-points
      166   600.50   660.50   295.50   318.50    U-points
      167   660.50   720.00   295.50   318.50    U-points
      168     1.00    60.50   318.50   341.50    U-points
      169    60.50   120.50   318.50   341.50    U-points
      170   120.50   180.50   318.50   341.50    U-points
      171   180.50   240.50   318.50   341.50    U-points
      172   240.50   300.50   318.50   341.50    U-points
      173   300.50   360.50   318.50   341.50    U-points
      174   360.50   420.50   318.50   341.50    U-points
      175   420.50   480.50   318.50   341.50    U-points
      176   480.50   540.50   318.50   341.50    U-points
      177   540.50   600.50   318.50   341.50    U-points
      178   600.50   660.50   318.50   341.50    U-points
      179   660.50   720.00   318.50   341.50    U-points
      180     1.00    60.50   341.50   360.50    U-points
      181    60.50   120.50   341.50   360.50    U-points
      182   120.50   180.50   341.50   360.50    U-points
      183   180.50   240.50   341.50   360.50    U-points
      184   240.50   300.50   341.50   360.50    U-points
      185   300.50   360.50   341.50   360.50    U-points
      186   360.50   420.50   341.50   360.50    U-points
      187   420.50   480.50   341.50   360.50    U-points
      188   480.50   540.50   341.50   360.50    U-points
      189   540.50   600.50   341.50   360.50    U-points
      190   600.50   660.50   341.50   360.50    U-points
      191   660.50   720.00   341.50   360.50    U-points

        0     0.50    60.50     1.00    19.50    V-points
        1    60.50   120.50     1.00    19.50    V-points
        2   120.50   180.50     1.00    19.50    V-points
        3   180.50   240.50     1.00    19.50    V-points
        4   240.50   300.50     1.00    19.50    V-points
        5   300.50   360.50     1.00    19.50    V-points
        6   360.50   420.50     1.00    19.50    V-points
        7   420.50   480.50     1.00    19.50    V-points
        8   480.50   540.50     1.00    19.50    V-points
        9   540.50   600.50     1.00    19.50    V-points
       10   600.50   660.50     1.00    19.50    V-points
       11   660.50   720.50     1.00    19.50    V-points
       12     0.50    60.50    19.50    42.50    V-points
       13    60.50   120.50    19.50    42.50    V-points
       14   120.50   180.50    19.50    42.50    V-points
       15   180.50   240.50    19.50    42.50    V-points
       16   240.50   300.50    19.50    42.50    V-points
       17   300.50   360.50    19.50    42.50    V-points
       18   360.50   420.50    19.50    42.50    V-points
       19   420.50   480.50    19.50    42.50    V-points
       20   480.50   540.50    19.50    42.50    V-points
       21   540.50   600.50    19.50    42.50    V-points
       22   600.50   660.50    19.50    42.50    V-points
       23   660.50   720.50    19.50    42.50    V-points
       24     0.50    60.50    42.50    65.50    V-points
       25    60.50   120.50    42.50    65.50    V-points
       26   120.50   180.50    42.50    65.50    V-points
       27   180.50   240.50    42.50    65.50    V-points
       28   240.50   300.50    42.50    65.50    V-points
       29   300.50   360.50    42.50    65.50    V-points
       30   360.50   420.50    42.50    65.50    V-points
       31   420.50   480.50    42.50    65.50    V-points
       32   480.50   540.50    42.50    65.50    V-points
       33   540.50   600.50    42.50    65.50    V-points
       34   600.50   660.50    42.50    65.50    V-points
       35   660.50   720.50    42.50    65.50    V-points
       36     0.50    60.50    65.50    88.50    V-points
       37    60.50   120.50    65.50    88.50    V-points
       38   120.50   180.50    65.50    88.50    V-points
       39   180.50   240.50    65.50    88.50    V-points
       40   240.50   300.50    65.50    88.50    V-points
       41   300.50   360.50    65.50    88.50    V-points
       42   360.50   420.50    65.50    88.50    V-points
       43   420.50   480.50    65.50    88.50    V-points
       44   480.50   540.50    65.50    88.50    V-points
       45   540.50   600.50    65.50    88.50    V-points
       46   600.50   660.50    65.50    88.50    V-points
       47   660.50   720.50    65.50    88.50    V-points
       48     0.50    60.50    88.50   111.50    V-points
       49    60.50   120.50    88.50   111.50    V-points
       50   120.50   180.50    88.50   111.50    V-points
       51   180.50   240.50    88.50   111.50    V-points
       52   240.50   300.50    88.50   111.50    V-points
       53   300.50   360.50    88.50   111.50    V-points
       54   360.50   420.50    88.50   111.50    V-points
       55   420.50   480.50    88.50   111.50    V-points
       56   480.50   540.50    88.50   111.50    V-points
       57   540.50   600.50    88.50   111.50    V-points
       58   600.50   660.50    88.50   111.50    V-points
       59   660.50   720.50    88.50   111.50    V-points
       60     0.50    60.50   111.50   134.50    V-points
       61    60.50   120.50   111.50   134.50    V-points
       62   120.50   180.50   111.50   134.50    V-points
       63   180.50   240.50   111.50   134.50    V-points
       64   240.50   300.50   111.50   134.50    V-points
       65   300.50   360.50   111.50   134.50    V-points
       66   360.50   420.50   111.50   134.50    V-points
       67   420.50   480.50   111.50   134.50    V-points
       68   480.50   540.50   111.50   134.50    V-points
       69   540.50   600.50   111.50   134.50    V-points
       70   600.50   660.50   111.50   134.50    V-points
       71   660.50   720.50   111.50   134.50    V-points
       72     0.50    60.50   134.50   157.50    V-points
       73    60.50   120.50   134.50   157.50    V-points
       74   120.50   180.50   134.50   157.50    V-points
       75   180.50   240.50   134.50   157.50    V-points
       76   240.50   300.50   134.50   157.50    V-points
       77   300.50   360.50   134.50   157.50    V-points
       78   360.50   420.50   134.50   157.50    V-points
       79   420.50   480.50   134.50   157.50    V-points
       80   480.50   540.50   134.50   157.50    V-points
       81   540.50   600.50   134.50   157.50    V-points
       82   600.50   660.50   134.50   157.50    V-points
       83   660.50   720.50   134.50   157.50    V-points
       84     0.50    60.50   157.50   180.50    V-points
       85    60.50   120.50   157.50   180.50    V-points
       86   120.50   180.50   157.50   180.50    V-points
       87   180.50   240.50   157.50   180.50    V-points
       88   240.50   300.50   157.50   180.50    V-points
       89   300.50   360.50   157.50   180.50    V-points
       90   360.50   420.50   157.50   180.50    V-points
       91   420.50   480.50   157.50   180.50    V-points
       92   480.50   540.50   157.50   180.50    V-points
       93   540.50   600.50   157.50   180.50    V-points
       94   600.50   660.50   157.50   180.50    V-points
       95   660.50   720.50   157.50   180.50    V-points
       96     0.50    60.50   180.50   203.50    V-points
       97    60.50   120.50   180.50   203.50    V-points
       98   120.50   180.50   180.50   203.50    V-points
       99   180.50   240.50   180.50   203.50    V-points
      100   240.50   300.50   180.50   203.50    V-points
      101   300.50   360.50   180.50   203.50    V-points
      102   360.50   420.50   180.50   203.50    V-points
      103   420.50   480.50   180.50   203.50    V-points
      104   480.50   540.50   180.50   203.50    V-points
      105   540.50   600.50   180.50   203.50    V-points
      106   600.50   660.50   180.50   203.50    V-points
      107   660.50   720.50   180.50   203.50    V-points
      108     0.50    60.50   203.50   226.50    V-points
      109    60.50   120.50   203.50   226.50    V-points
      110   120.50   180.50   203.50   226.50    V-points
      111   180.50   240.50   203.50   226.50    V-points
      112   240.50   300.50   203.50   226.50    V-points
      113   300.50   360.50   203.50   226.50    V-points
      114   360.50   420.50   203.50   226.50    V-points
      115   420.50   480.50   203.50   226.50    V-points
      116   480.50   540.50   203.50   226.50    V-points
      117   540.50   600.50   203.50   226.50    V-points
      118   600.50   660.50   203.50   226.50    V-points
      119   660.50   720.50   203.50   226.50    V-points
      120     0.50    60.50   226.50   249.50    V-points
      121    60.50   120.50   226.50   249.50    V-points
      122   120.50   180.50   226.50   249.50    V-points
      123   180.50   240.50   226.50   249.50    V-points
      124   240.50   300.50   226.50   249.50    V-points
      125   300.50   360.50   226.50   249.50    V-points
      126   360.50   420.50   226.50   249.50    V-points
      127   420.50   480.50   226.50   249.50    V-points
      128   480.50   540.50   226.50   249.50    V-points
      129   540.50   600.50   226.50   249.50    V-points
      130   600.50   660.50   226.50   249.50    V-points
      131   660.50   720.50   226.50   249.50    V-points
      132     0.50    60.50   249.50   272.50    V-points
      133    60.50   120.50   249.50   272.50    V-points
      134   120.50   180.50   249.50   272.50    V-points
      135   180.50   240.50   249.50   272.50    V-points
      136   240.50   300.50   249.50   272.50    V-points
      137   300.50   360.50   249.50   272.50    V-points
      138   360.50   420.50   249.50   272.50    V-points
      139   420.50   480.50   249.50   272.50    V-points
      140   480.50   540.50   249.50   272.50    V-points
      141   540.50   600.50   249.50   272.50    V-points
      142   600.50   660.50   249.50   272.50    V-points
      143   660.50   720.50   249.50   272.50    V-points
      144     0.50    60.50   272.50   295.50    V-points
      145    60.50   120.50   272.50   295.50    V-points
      146   120.50   180.50   272.50   295.50    V-points
      147   180.50   240.50   272.50   295.50    V-points
      148   240.50   300.50   272.50   295.50    V-points
      149   300.50   360.50   272.50   295.50    V-points
      150   360.50   420.50   272.50   295.50    V-points
      151   420.50   480.50   272.50   295.50    V-points
      152   480.50   540.50   272.50   295.50    V-points
      153   540.50   600.50   272.50   295.50    V-points
      154   600.50   660.50   272.50   295.50    V-points
      155   660.50   720.50   272.50   295.50    V-points
      156     0.50    60.50   295.50   318.50    V-points
      157    60.50   120.50   295.50   318.50    V-points
      158   120.50   180.50   295.50   318.50    V-points
      159   180.50   240.50   295.50   318.50    V-points
      160   240.50   300.50   295.50   318.50    V-points
      161   300.50   360.50   295.50   318.50    V-points
      162   360.50   420.50   295.50   318.50    V-points
      163   420.50   480.50   295.50   318.50    V-points
      164   480.50   540.50   295.50   318.50    V-points
      165   540.50   600.50   295.50   318.50    V-points
      166   600.50   660.50   295.50   318.50    V-points
      167   660.50   720.50   295.50   318.50    V-points
      168     0.50    60.50   318.50   341.50    V-points
      169    60.50   120.50   318.50   341.50    V-points
      170   120.50   180.50   318.50   341.50    V-points
      171   180.50   240.50   318.50   341.50    V-points
      172   240.50   300.50   318.50   341.50    V-points
      173   300.50   360.50   318.50   341.50    V-points
      174   360.50   420.50   318.50   341.50    V-points
      175   420.50   480.50   318.50   341.50    V-points
      176   480.50   540.50   318.50   341.50    V-points
      177   540.50   600.50   318.50   341.50    V-points
      178   600.50   660.50   318.50   341.50    V-points
      179   660.50   720.50   318.50   341.50    V-points
      180     0.50    60.50   341.50   360.00    V-points
      181    60.50   120.50   341.50   360.00    V-points
      182   120.50   180.50   341.50   360.00    V-points
      183   180.50   240.50   341.50   360.00    V-points
      184   240.50   300.50   341.50   360.00    V-points
      185   300.50   360.50   341.50   360.00    V-points
      186   360.50   420.50   341.50   360.00    V-points
      187   420.50   480.50   341.50   360.00    V-points
      188   480.50   540.50   341.50   360.00    V-points
      189   540.50   600.50   341.50   360.00    V-points
      190   600.50   660.50   341.50   360.00    V-points
      191   660.50   720.50   341.50   360.00    V-points

 Maximum halo size in XI and ETA directions:

               HaloSizeI(1) =     144
               HaloSizeJ(1) =      70
                TileSide(1) =      66
                TileSize(1) =    1914



 GFDL Cobalt Model Parameters, Grid: 01
 =================================

          1  BioIter         Number of iterations for nonlinear convergence.
 1.0000E-02  htotal_scale_lo htotal_scale_lo ?[N/A].
 1.0000E+02  htotal_scale_hi htotal_scale_hi ?[N/A].
 1.0350E+03  RHO_0           sea water density[N/A].
 2.0091E+00  a_0             a_0 : coefficients for O2 saturation[N/A].
 3.2201E+00  a_1             a_1 : coefficients for O2 saturation[N/A].
 4.0501E+00  a_2             a_2 : coefficients for O2 saturation[N/A].
 4.9446E+00  a_3             a_3 : coefficients for O2 saturation[N/A].
-2.5685E-01  a_4             a_4 : coefficients for O2 saturation[N/A].
 3.8877E+00  a_5             a_5 : coefficients for O2 saturation[N/A].
-6.2452E-03  b_0             b_0 : coefficients for O2 saturation[N/A].
-7.3761E-03  b_1             b_1 : coefficients for O2 saturation[N/A].
-1.0341E-02  b_2             b_2 : coefficients for O2 saturation[N/A].
-8.1708E-03  b_3             b_3 : coefficients for O2 saturation[N/A].
-4.8868E-07  c_0             c_0 : coefficients for O2 saturation[N/A].
 2.0689E+03  a1_co2          a1_co2 : Compute the Schmidt number of CO2 in                    seawater[N/A].
-1.1863E+02  a2_co2          a2_co2 : Compute the Schmidt number of CO2 in                    seawater[N/A].
 2.9311E+00  a3_co2          a3_co2 : Compute the Schmidt number of CO2 in                    seawater[N/A].
-2.7000E-02  a4_co2          a4_co2 : Compute the Schmidt number of CO2 in                    seawater[N/A].
 1.9297E+03  a1_o2           a1_o2 : Compute the Schmidt number of O2 in                      seawater[N/A].
-1.1746E+02  a2_o2           a2_o2 : Compute the Schmidt number of O2 in                      seawater[N/A].
 3.1160E+00  a3_o2           a3_o2 : Compute the Schmidt number of O2 in                      seawater[N/A].
-3.0600E-02  a4_o2           a4_o2 : Compute the Schmidt number of O2 in                      seawater[N/A].
 1.4866E+02  mass_2_n        mass_2_n: Stoichiometry[g mol N-1].
 5.9000E+00  n_2_n_denit     n_2_n_denit: Stoichiometry[mol N NO3 mol N org-1].
 1.4150E+00  o2_2_c          o2_2_c: Stoichiometry[mol O2 mol C-1].
 1.1838E+02  o2_2_nfix       o2_2_nfix: Stoichiometry[mol O2 mol N-1].
 7.3750E+00  o2_2_nh4        o2_2_nh4: Stoichiometry[mol O2 mol N-1].
 2.0000E+00  o2_2_nitrif     o2_2_nitrif: Stoichiometry[mol O2 mol N-1].
 9.3750E+00  o2_2_no3        o2_2_no3: Stoichiometry[mol O2 mol N-1].
 5.0000E-10  k_fed_Di        k_fed_Di: Nutrient Limitation Parameters                         (phytoplankton)[mol Fed kg-1].
 5.0000E-10  k_fed_Lg        k_fed_Lg: Nutrient Limitation Parameters                         (phytoplankton)[mol Fed kg-1].
 1.0000E-10  k_fed_Sm        k_fed_Sm: Nutrient Limitation Parameters                         (phytoplankton)[mol Fed kg-1].
 5.0000E-07  k_nh4_Lg        k_nh4_Lg: Nutrient Limitation Parameters                         (phytoplankton)[mol NH4 kg-1].
 1.0000E-07  k_nh4_Sm        k_nh4_Sm: Nutrient Limitation Parameters                         (phytoplankton)[mol NH4 kg-1].
 5.0000E-07  k_nh4_Di        k_nh4_Di: Nutrient Limitation Parameters                         (phytoplankton)[mol NH4 kg-1].
 2.5000E-06  k_no3_Lg        k_no3_Lg: Nutrient Limitation Parameters                         (phytoplankton)[mol NO3 kg-1].
 5.0000E-07  k_no3_Sm        k_no3_Sm: Nutrient Limitation Parameters                         (phytoplankton) [mol NO3 kg-1].
 2.5000E-06  k_no3_Di        k_no3_Di: Nutrient Limitation Parameters                         (phytoplankton) [mol NO3 kg-1].
 5.0000E-08  k_po4_Di        k_po4_Di: Nutrient Limitation Parameters                         (phytoplankton) [mol PO4 kg-1].
 5.0000E-08  k_po4_Lg        k_po4_Lg: Nutrient Limitation Parameters                         (phytoplankton) [mol PO4 kg-1].
 1.0000E-08  k_po4_Sm        k_po4_Sm: Nutrient Limitation Parameters                         (phytoplankton) [mol PO4 kg-1].
 2.0000E-06  k_sio4_Lg       k_sio4_Lg: Nutrient Limitation Parameters                        (phytoplankton) [mol SiO4 kg-1].
 1.6563E-04  k_fe_2_n_Di     k_fe_2_n_Di: Nutrient Limitation Parameters                      (phytoplankton) [mol Fe mol N-1].
 3.9750E-05  k_fe_2_n_Lg     k_fe_2_n_Lg: Nutrient Limitation Parameters (phytoplankton) [mol Fe mol N-1].
 1.9875E-05  k_fe_2_n_Sm     k_fe_2_n_Sm: Nutrient Limitation Parameters (phytoplankton) [mol Fe mol N-1].
 3.3125E-04  fe_2_n_max_Sm   fe_2_n_max_Sm: Nutrient Limitation Parameters (phytoplankton)[mol Fe mol N-1].
 3.3125E-03  fe_2_n_max_Lg   fe_2_n_max_Lg: Nutrient Limitation Parameters (phytoplankton)[mol Fe mol N-1].
 3.3125E-03  fe_2_n_max_Di   fe_2_n_max_Di: Nutrient Limitation Parameters (phytoplankton)[mol Fe mol N-1].
 1.5000E-05  fe_2_n_upt_fac  fe_2_n_upt_fac: Nutrient Limitation Parameters (phytoplankton)[mol Fe mol N-1].
 4.6000E-05  alpha_Di        alpha_Di: Phytoplankton light limitation/growth rate[g C g Chl-1 m2 W-1 s-1].
 4.6000E-05  alpha_Lg        alpha_Lg: Phytoplankton light limitation/growth rate[g C g Chl-1 m2 W-1 s-1].
 9.2000E-05  alpha_Sm        alpha_Sm: Phytoplankton light limitation/growth rate[g C g Chl-1 m2 W-1 s-1].
 6.3000E-02  kappa_eppley    kappa_eppley: Phytoplankton light limitation/growth rate[deg C-1].
 0.0000E+00  P_C_max_Di      P_C_max_Di: Phytoplankton light limitation/growth rate[s-1].
 1.3021E-05  P_C_max_Lg      P_C_max_Lg: Phytoplankton light limitation/growth rate[s-1].
 1.3020E-05  P_C_max_Sm      P_C_max_Sm: Phytoplankton light limitation/growth rate[s-1].
 3.0000E-02  thetamax_Di     thetamax_Di: Phytoplankton light limitation/growth rate[g Chl g C-1].
 5.0000E-02  thetamax_Lg     thetamax_Lg: Phytoplankton light limitation/growth rate[g Chl g C-1].
 3.0000E-02  thetamax_Sm     thetamax_Sm: Phytoplankton light limitation/growth rate[g Chl g C-1].
 2.8940E-07  bresp_Di        bresp_Di: Phytoplankton light limitation/growth rate[sec-1].
 2.8935E-07  bresp_Lg        bresp_Lg: Phytoplankton light limitation/growth rate[sec-1].
 2.6040E-07  bresp_Sm        bresp_Sm: Phytoplankton light limitation/growth rate[sec-1].
 2.0000E-03  thetamin        thetamin: Phytoplankton light limitation/growth rate[g Chl g C-1].
 0.0000E+00  thetamin_nolim  thetamin_nolim: Phytoplankton light limitation/growth rate[g Chl g C-1].
 5.0000E-02  zpllgr          zpllgr: Phytoplankton light limitation/growth rate[dimensionless].
 1.1574E-05  gamma_irr_mem   gamma_irr_mem: Phytoplankton light limitation/growth rate[s-1].
 1.1574E-05  gamma_mu_mem    gamma_mu_mem: Phytoplankton aggregation rate[s-1].
 1.0000E-06  k_n_inhib_Di    k_n_inhib_Di: Nitrogen fixation inhibition parameters[mol NO3 kg-1].
 4.0000E+00  o2_inhib_Di_pow o2_inhib_Di_pow: Nitrogen fixation inhibition parameters[mol O2-1 m3].
 3.0000E-04  o2_inhib_Di_sat o2_inhib_Di_sat: Nitrogen fixation inhibition parameters[mol O2 kg-1].
 6.6250E+00  c_2_n           c_2_n: Other stoichiometry[N/A].
 1.1695E+00  alk_2_n_denit   alk_2_n_denit: Other stoichiometry[eq. alk mol NO3-1].
 2.5000E-02  p_2_n_static_Di p_2_n_static_Di: Other stoichiometry[mol P mol N-1].
 6.2500E-02  p_2_n_static_Lg p_2_n_static_Lg: Other stoichiometry[mol P mol N-1].
 6.2500E-02  p_2_n_static_Sm p_2_n_static_Sm: Other stoichiometry[mol P mol N-1].
 2.0000E+00  si_2_n_static_Lgsi_2_n_static_Lg: Other stoichiometry[mol Si mol N-1].
 5.0000E+00  si_2_n_max_Lg   si_2_n_max_Lg: Other stoichiometry[mol Si mol N-1].
 1.3250E-01  ca_2_n_arag     ca_2_n_arag: Other stoichiometry[mol Ca mol N-1].
 6.6250E-02  ca_2_n_calc     ca_2_n_calc: Other stoichiometry[mol Ca mol N-1].
 1.0000E+01  caco3_sat_max   caco3_sat_max: Other stoichiometry[dimensionless].
 6.2500E-02  q_p_2_n_smz     q_p_2_n_smz: Zooplankton Stoichiometry - presently static[mol P mol N-1].
 6.2500E-02  q_p_2_n_mdz     q_p_2_n_mdz: Zooplankton Stoichiometry - presently static[mol P mol N-1].
 6.2500E-02  q_p_2_n_lgz     q_p_2_n_lgz: Zooplankton Stoichiometry - presently static[mol P mol N-1].
 6.2500E-02  q_p_2_n_bact    q_p_2_n_bact: Bacteria Stoichiometry - presently static[mol P mol N-1].
 1.1574E+00  agg_Sm          agg_Sm: Phytoplankton aggregation[s-1 (mole N kg)-1].
 0.0000E+00  agg_Di          agg_Di: Phytoplankton aggregation[s-1 (mole N kg)-1].
 3.4722E+00  agg_Lg          agg_Lg: Phytoplankton aggregation[s-1 (mole N kg)-1].
 2.8940E-01  vir_Sm          vir_Sm: Phytoplankton and bacterial losses to viruses[s-1 (mole N kg)-1].
 0.0000E+00  vir_Di          vir_Di: Phytoplankton and bacterial losses to viruses[s-1 (mole N kg)-1].
 0.0000E+00  vir_Lg          vir_Lg: Phytoplankton and bacterial losses to viruses[s-1 (mole N kg)-1].
 3.8194E-01  vir_Bact        vir_Bact: Phytoplankton and bacterial losses to viruses[s-1 (mole N kg)-1].
 6.3000E-02  ktemp_vir       ktemp_vir: Phytoplankton and bacterial losses to viruses[C-1].
 1.3000E-01  exu_Sm          exu_Sm: Phytoplankton losses to exudation[dimensionless (fraction of NPP)].
 1.3000E-01  exu_Di          exu_Di: Phytoplankton losses to exudation[dimensionless (fraction of NPP)].
 1.3000E-01  exu_Lg          exu_Lg: Phytoplankton losses to exudation[dimensionless (fraction of NPP)].
 1.6435E-05  imax_smz        imax_smz: Zooplankton ingestion parameterization and temperature dependence[s-1].
 6.5972E-06  imax_mdz        imax_mdz: Zooplankton ingestion parameterization and temperature dependence[s-1].
 2.6620E-06  imax_lgz        imax_lgz: Zooplankton ingestion parameterization and temperature dependence[s-1].
 1.2500E-06  ki_smz          ki_smz: Zooplankton ingestion parameterization and temperature dependence[moles N kg-1].
 1.2500E-06  ki_mdz          ki_mdz: Zooplankton ingestion parameterization and temperature dependence[moles N kg-1].
 1.2500E-06  ki_lgz          ki_lgz: Zooplankton ingestion parameterization and temperature dependence[moles N kg-1].
 6.3000E-02  ktemp_smz       ktemp_smz: Zooplankton ingestion parameterization and temperature dependence[C-1].
 6.3000E-02  ktemp_mdz       ktemp_mdz: Zooplankton ingestion parameterization and temperature dependence[C-1].
 6.3000E-02  ktemp_lgz       ktemp_lgz: Zooplankton ingestion parameterization and temperature dependence[C-1].
 1.1574E-05  mu_max_bact     mu_max_bact: Bacterial growth and uptake parameters[s-1].
 5.0000E-07  k_ldon_bact     k_ldon_bact: Bacterial growth and uptake parameters[mol ldon kg-1].
 6.3000E-02  ktemp_bact      ktemp_bact: Bacterial growth and uptake parameters[C-1].
 2.0000E+00  nswitch_smz     nswitch_smz: Zooplankton switching and prey preference parameters[dimensionless].
 2.0000E+00  nswitch_mdz     nswitch_mdz: Zooplankton switching and prey preference parameters[dimensionless].
 2.0000E+00  nswitch_lgz     nswitch_lgz: Zooplankton switching and prey preference parameters[dimensionless].
 2.0000E+00  mswitch_smz     mswitch_smz: Zooplankton switching and prey preference parameters[dimensionless].
 2.0000E+00  mswitch_mdz     mswitch_mdz: Zooplankton switching and prey preference parameters[dimensionless].
 2.0000E+00  mswitch_lgz     mswitch_lgz: Zooplankton switching and prey preference parameters[dimensionless].
 1.0000E+00  smz_ipa_smp     smz_ipa_smp: Zooplankton switching and prey preference parameters[dimensionless].
 0.0000E+00  smz_ipa_lgp     smz_ipa_lgp: Zooplankton switching and prey preference parameters[dimensionless].
 0.0000E+00  smz_ipa_diaz    smz_ipa_diaz: Zooplankton switching and prey preference parameters[dimensionless].
 0.0000E+00  smz_ipa_smz     smz_ipa_smz: Zooplankton switching and prey preference parameters[dimensionless].
 0.0000E+00  smz_ipa_mdz     smz_ipa_mdz: Zooplankton switching and prey preference parameters[dimensionless].
 0.0000E+00  smz_ipa_lgz     smz_ipa_lgz: Zooplankton switching and prey preference parameters[dimensionless].
 2.5000E-01  smz_ipa_bact    smz_ipa_bact: Zooplankton switching and prey preference parameters[dimensionless].
 0.0000E+00  smz_ipa_det     smz_ipa_det: Zooplankton switching and prey preference parameters[dimensionless].
 0.0000E+00  mdz_ipa_smp     mdz_ipa_smp: Zooplankton switching and prey preference parameters[dimensionless].
 1.0000E+00  mdz_ipa_lgp     mdz_ipa_lgp: Zooplankton switching and prey preference parameters[dimensionless].
 1.0000E+00  mdz_ipa_diaz    mdz_ipa_diaz: Zooplankton switching and prey preference parameters[dimensionless].
 1.0000E+00  mdz_ipa_smz     mdz_ipa_smz: Zooplankton switching and prey preference parameters[dimensionless].
 0.0000E+00  mdz_ipa_mdz     mdz_ipa_mdz: Zooplankton switching and prey preference parameters[dimensionless].
 0.0000E+00  mdz_ipa_lgz     mdz_ipa_lgz: Zooplankton switching and prey preference parameters[dimensionless].
 0.0000E+00  mdz_ipa_bact    mdz_ipa_bact: Zooplankton switching and prey preference parameters[dimensionless].
 0.0000E+00  mdz_ipa_det     mdz_ipa_det: Zooplankton switching and prey preference parameters[dimensionless].
 0.0000E+00  lgz_ipa_smp     lgz_ipa_smp: Zooplankton switching and prey preference parameters[dimensionless].
 1.0000E+00  lgz_ipa_lgp     lgz_ipa_lgp: Zooplankton switching and prey preference parameters[dimensionless].
 1.0000E+00  lgz_ipa_diaz    lgz_ipa_diaz: Zooplankton switching and prey preference parameters[dimensionless].
 0.0000E+00  lgz_ipa_smz     lgz_ipa_smz: Zooplankton switching and prey preference parameters[dimensionless].
 1.0000E+00  lgz_ipa_mdz     lgz_ipa_mdz: Zooplankton switching and prey preference parameters[dimensionless].
 0.0000E+00  lgz_ipa_lgz     lgz_ipa_lgz: Zooplankton switching and prey preference parameters[dimensionless].
 0.0000E+00  lgz_ipa_bact    lgz_ipa_bact: Zooplankton switching and prey preference parameters[dimensionless].
 0.0000E+00  lgz_ipa_det     lgz_ipa_det: Zooplankton switching and prey preference parameters[dimensionless].
 4.0000E-01  gge_max_smz     gge_max_smz: Zooplankton bioenergetics[dimensionless].
 4.0000E-01  gge_max_mdz     gge_max_mdz: Zooplankton bioenergetics[dimensionless].
 4.0000E-01  gge_max_lgz     gge_max_lgz: Zooplankton bioenergetics[dimensionless].
 2.3148E-07  bresp_smz       bresp_smz: Zooplankton bioenergetics[s-1].
 9.2593E-08  bresp_mdz       bresp_mdz: Zooplankton bioenergetics[s-1].
 3.7037E-08  bresp_lgz       bresp_lgz: Zooplankton bioenergetics[s-1].
 4.0000E-01  gge_max_bact    gge_max_bact: Bacterial bioenergetics[dimensionless].
 8.6806E-08  bresp_bact      bresp_bact: Bacterial bioenergetics[s-1].
 0.0000E+00  phi_det_smz     phi_det_smz: Partitioning of zooplankton ingestion to other compartments[dimensionless].
 2.0000E-01  phi_det_mdz     phi_det_mdz: Partitioning of zooplankton ingestion to other compartments[dimensionless].
 3.0000E-01  phi_det_lgz     phi_det_lgz: Partitioning of zooplankton ingestion to other compartments[dimensionless].
 1.6500E-01  phi_ldon_smz    phi_ldon_smz: Partitioning of zooplankton ingestion to other compartments[dimensionless].
 5.5000E-02  phi_ldon_mdz    phi_ldon_mdz: Partitioning of zooplankton ingestion to other compartments[dimensionless].
 0.0000E+00  phi_ldon_lgz    phi_ldon_lgz: Partitioning of zooplankton ingestion to other compartments[dimensionless].
 1.3500E-01  phi_ldop_smz    phi_ldop_smz: Partitioning of zooplankton ingestion to other compartments[dimensionless].
 4.5000E-02  phi_ldop_mdz    phi_ldop_mdz: Partitioning of zooplankton ingestion to other compartments[dimensionless].
 0.0000E+00  phi_ldop_lgz    phi_ldop_lgz: Partitioning of zooplankton ingestion to other compartments[dimensionless].
 1.5000E-02  phi_srdon_smz   phi_srdon_smz: Partitioning of zooplankton ingestion to other compartments[dimensionless].
 5.0000E-03  phi_srdon_mdz   phi_srdon_mdz: Partitioning of zooplankton ingestion to other compartments[dimensionless].
 0.0000E+00  phi_srdon_lgz   phi_srdon_lgz: Partitioning of zooplankton ingestion to other compartments[dimensionless].
 4.5000E-02  phi_srdop_smz   phi_srdop_smz: Partitioning of zooplankton ingestion to other compartments[dimensionless].
 1.5000E-02  phi_srdop_mdz   phi_srdop_mdz: Partitioning of zooplankton ingestion to other compartments[dimensionless].
 0.0000E+00  phi_srdop_lgz   phi_srdop_lgz: Partitioning of zooplankton ingestion to other compartments[dimensionless].
 1.2000E-01  phi_sldon_smz   phi_sldon_smz: Partitioning of zooplankton ingestion to other compartments[dimensionless].
 4.0000E-02  phi_sldon_mdz   phi_sldon_mdz: Partitioning of zooplankton ingestion to other compartments[dimensionless].
 0.0000E+00  phi_sldon_lgz   phi_sldon_lgz: Partitioning of zooplankton ingestion to other compartments[dimensionless].
 1.2000E-01  phi_sldop_smz   phi_sldop_smz: Partitioning of zooplankton ingestion to other compartments[dimensionless].
 4.0000E-02  phi_sldop_mdz   phi_sldop_mdz: Partitioning of zooplankton ingestion to other compartments[dimensionless].
 0.0000E+00  phi_sldop_lgz   phi_sldop_lgz: Partitioning of zooplankton ingestion to other compartments[dimensionless].
 3.0000E-01  phi_nh4_smz     phi_nh4_smz: Partitioning of zooplankton ingestion to other compartments[dimensionless].
 3.0000E-01  phi_nh4_mdz     phi_nh4_mdz: Partitioning of zooplankton ingestion to other compartments[dimensionless].
 3.0000E-01  phi_nh4_lgz     phi_nh4_lgz: Partitioning of zooplankton ingestion to other compartments[dimensionless].
 3.0000E-01  phi_po4_smz     phi_po4_smz: Partitioning of zooplankton ingestion to other compartments[dimensionless].
 3.0000E-01  phi_po4_mdz     phi_po4_mdz: Partitioning of zooplankton ingestion to other compartments[dimensionless].
 3.0000E-01  phi_po4_lgz     phi_po4_lgz: Partitioning of zooplankton ingestion to other compartments[dimensionless].
 5.5000E-01  phi_ldon_vir    phi_ldon_vir: Partitioning of viral losses to various dissolved pools[dimensionless].
 5.0000E-02  phi_srdon_vir   phi_srdon_vir: Partitioning of viral losses to various dissolved pools[dimensionless].
 4.0000E-01  phi_sldon_vir   phi_sldon_vir: Partitioning of viral losses to various dissolved pools[dimensionless].
 4.5000E-01  phi_ldop_vir    phi_ldop_vir: Partitioning of viral losses to various dissolved pools[dimensionless].
 1.5000E-01  phi_srdop_vir   phi_srdop_vir: Partitioning of viral losses to various dissolved pools[dimensionless].
 4.0000E-01  phi_sldop_vir   phi_sldop_vir: Partitioning of viral losses to various dissolved pools[dimensionless].
 1.0417E-06  imax_hp         imax_hp: Parameters for unresolved higher predators[s-1].
 1.2000E-06  ki_hp           ki_hp: Parameters for unresolved higher predators[mol N kg-1].
 2.0000E+00  coef_hp         coef_hp: Parameters for unresolved higher predators[dimensionless].
 6.3000E-02  ktemp_hp        ktemp_hp: Parameters for unresolved higher predators[C-1].
 2.0000E+00  nswitch_hp      nswitch_hp: Parameters for unresolved higher predators[dimensionless].
 2.0000E+00  mswitch_hp      mswitch_hp: Parameters for unresolved higher predators[dimensionless].
 0.0000E+00  hp_ipa_smp      hp_ipa_smp: Parameters for unresolved higher predators[dimensionless].
 0.0000E+00  hp_ipa_lgp      hp_ipa_lgp: Parameters for unresolved higher predators[dimensionless].
 0.0000E+00  hp_ipa_diaz     hp_ipa_diaz: Parameters for unresolved higher predators[dimensionless].
 0.0000E+00  hp_ipa_smz      hp_ipa_smz: Parameters for unresolved higher predators[dimensionless].
 1.0000E+00  hp_ipa_mdz      hp_ipa_mdz: Parameters for unresolved higher predators[dimensionless].
 1.0000E+00  hp_ipa_lgz      hp_ipa_lgz: Parameters for unresolved higher predators[dimensionless].
 0.0000E+00  hp_ipa_bact     hp_ipa_bact: Parameters for unresolved higher predators[dimensionless].
 0.0000E+00  hp_ipa_det      hp_ipa_det: Parameters for unresolved higher predators[dimensionless].
 3.5000E-01  hp_phi_det      hp_phi_det: Parameters for unresolved higher predators[dimensionless].
 0.0000E+00  hp_phi_ldon     hp_phi_ldon: Parameters for unresolved higher predators[dimensionless].
 0.0000E+00  hp_phi_ldop     hp_phi_ldop: Parameters for unresolved higher predators[dimensionless].
 0.0000E+00  hp_phi_srdon    hp_phi_srdon: Parameters for unresolved higher predators[dimensionless].
 0.0000E+00  hp_phi_srdop    hp_phi_srdop: Parameters for unresolved higher predators[dimensionless].
 0.0000E+00  hp_phi_sldon    hp_phi_sldon: Parameters for unresolved higher predators[dimensionless].
[...]
          (720,155,25)  1.538925E-04  1.911197E-03  4.150025E-01  2.607049E+00
     627 41289 18:48:00  9.139158E-03  2.259961E+04  2.259962E+04  2.733138E+16
          (720,155,25)  2.627386E-04  4.261997E-03  4.366241E-01  2.595240E+00
     628 41289 18:52:00  9.140008E-03  2.259959E+04  2.259960E+04  2.733136E+16
          (720,155,24)  3.171705E-04  4.957566E-03  4.568283E-01  2.581645E+00
     629 41289 18:56:00  9.140909E-03  2.259957E+04  2.259958E+04  2.733135E+16
          (720,155,24)  4.369530E-04  7.340405E-03  4.717502E-01  2.594464E+00
     630 41289 19:00:00  9.141860E-03  2.259955E+04  2.259956E+04  2.733133E+16
          (720,155,24)  6.198587E-04  9.761999E-03  4.822543E-01  2.612861E+00
     631 41289 19:04:00  9.142863E-03  2.259953E+04  2.259953E+04  2.733131E+16
          (720,155,24)  8.686065E-04  1.220064E-02  4.879777E-01  2.628788E+00
     632 41289 19:08:00  9.143914E-03  2.259950E+04  2.259951E+04  2.733129E+16
          (720,155,24)  1.192649E-03  1.463021E-02  4.889691E-01  2.642128E+00
     633 41289 19:12:00  9.145013E-03  2.259948E+04  2.259949E+04  2.733126E+16
          (720,155,24)  1.578612E-03  1.702321E-02  4.851806E-01  2.652734E+00
     634 41289 19:16:00  9.146155E-03  2.259946E+04  2.259947E+04  2.733124E+16
          (720,155,24)  2.005458E-03  1.935466E-02  4.766947E-01  2.660539E+00
     635 41289 19:20:00  9.147337E-03  2.259943E+04  2.259944E+04  2.733121E+16
          (720,155,24)  2.443662E-03  2.160705E-02  4.637049E-01  2.665464E+00
     636 41289 19:24:00  9.148555E-03  2.259941E+04  2.259942E+04  2.733119E+16
          (720,155,24)  2.863111E-03  2.377336E-02  4.464429E-01  2.667481E+00
     637 41289 19:28:00  9.149808E-03  2.259938E+04  2.259939E+04  2.733116E+16
          (720,155,24)  3.240656E-03  2.585814E-02  4.251958E-01  2.666597E+00
    GET_2DFLD   - surface u-wind component,                  t = 41289 22:30:00
                   (Rec=0011824, Index=1, File: MERRA_Uwind_2009-2014_3hours.nc)
                   (Tmin=      39812.0625 Tmax=      42002.9375)
                   (Min = -6.44311617E+00 Max =  1.29862418E+01)
    GET_2DFLD   - surface v-wind component,                  t = 41289 22:30:00
                   (Rec=0011824, Index=1, File: MERRA_Vwind_2009-2014_3hours.nc)
                   (Tmin=      39812.0625 Tmax=      42002.9375)
                   (Min = -9.84577198E+00 Max =  8.29046464E+00)
    GET_2DFLD   - surface air pressure,                      t = 41289 22:30:00
                   (Rec=0011824, Index=1, File: MERRA_Pair_2009-2014_3hours.nc)
                   (Tmin=      39812.0625 Tmax=      42002.9375)
                   (Min =  9.94182932E+02 Max =  1.02806405E+03)
    GET_2DFLD   - surface air temperature,                   t = 41289 22:30:00
                   (Rec=0011824, Index=1, File: MERRA_Tair_2009-2014_3hours.nc)
                   (Tmin=      39812.0625 Tmax=      42002.9375)
                   (Min = -2.98076656E+01 Max =  3.43831849E+01)
    GET_2DFLD   - surface air relative humidity,             t = 41289 22:30:00
                   (Rec=0011824, Index=1, File: MERRA_Qair_2009-2014_3hours.nc)
                   (Tmin=      39812.0625 Tmax=      42002.9375)
                   (Min =  2.33091496E-04 Max =  1.90194847E-02)
    GET_2DFLD   - solar shortwave radiation flux,            t = 41289 22:30:00
                   (Rec=0011824, Index=1, File: MERRA_swrad_2009-2014_3hours_corr.nc)
                   (Tmin=      39812.0625 Tmax=      42002.9375)
                   (Min =  0.00000000E+00 Max =  5.90958251E-05)
    GET_2DFLD   - downwelling longwave radiation flux,       t = 41289 22:30:00
                   (Rec=0011824, Index=1, File: MERRA_lwrad_down_2009-2014_3hours_corr.nc)
                   (Tmin=      39812.0625 Tmax=      42002.9375)
                   (Min =  3.15581715E-05 Max =  1.26137807E-04)
    GET_2DFLD   - rain fall rate,                            t = 41289 22:30:00
                   (Rec=0011824, Index=1, File: MERRA_rain_2009-2014_3hours.nc)
                   (Tmin=      39812.0625 Tmax=      42002.9375)
                   (Min =  0.00000000E+00 Max =  3.72862823E-04)
     638 41289 19:32:00  9.151089E-03  2.259936E+04  2.259937E+04  2.733113E+16
          (720,155,24)  3.561466E-03  2.787590E-02  4.003134E-01  2.662876E+00
     639 41289 19:36:00  9.152394E-03  2.259933E+04  2.259934E+04  2.733110E+16
          (574,344,03)  3.013644E-02  1.381540E-02  3.940346E-01  2.656422E+00
     640 41289 19:40:00  9.153713E-03  2.259931E+04  2.259931E+04  2.733107E+16
          (574,344,03)  3.070260E-02  1.408674E-02  4.009235E-01  2.647393E+00
     641 41289 19:44:00  9.155042E-03  2.259928E+04  2.259929E+04  2.733103E+16
          (574,344,03)  3.124538E-02  1.436638E-02  4.068952E-01  2.635932E+00
     642 41289 19:48:00  9.156379E-03  2.259925E+04  2.259926E+04  2.733100E+16
          (574,344,03)  3.174513E-02  1.465641E-02  4.127072E-01  2.622263E+00
     643 41289 19:52:00  9.157714E-03  2.259923E+04  2.259923E+04  2.733097E+16
          (574,344,03)  3.222468E-02  1.495606E-02  4.180414E-01  2.606565E+00
     644 41289 19:56:00  9.159050E-03  2.259920E+04  2.259921E+04  2.733093E+16
          (573,343,03)  5.840598E-02  4.272314E-02  3.708165E-01  2.608587E+00
     645 41289 20:00:00  9.160383E-03  2.259917E+04  2.259918E+04  2.733089E+16
          (573,343,03)  6.044464E-02  4.363458E-02  3.810341E-01  2.752213E+00
     646 41289 20:04:00  9.161709E-03  2.259914E+04  2.259915E+04  2.733086E+16
          (573,343,03)  6.252003E-02  4.453534E-02  3.913079E-01  2.886310E+00
     647 41289 20:08:00  9.163026E-03  2.259912E+04  2.259913E+04  2.733082E+16
          (720,156,24)  1.517796E-03  6.750190E-03  5.043296E-01  3.011384E+00
     648 41289 20:12:00  9.164329E-03  2.259909E+04  2.259910E+04  2.733078E+16
          (720,156,24)  1.314624E-03  9.281003E-03  5.188120E-01  3.128960E+00
     649 41289 20:16:00  9.165618E-03  2.259906E+04  2.259907E+04  2.733074E+16
          (720,156,24)  1.096224E-03  1.182073E-02  5.286281E-01  3.236892E+00
     650 41289 20:20:00  9.166884E-03  2.259903E+04  2.259904E+04  2.733070E+16
          (573,343,02)  6.920447E-02  4.680161E-02  4.366296E-01  3.326098E+00
     651 41289 20:24:00  9.168130E-03  2.259901E+04  2.259902E+04  2.733066E+16
          (573,343,02)  7.124754E-02  4.764759E-02  4.475040E-01  3.418260E+00
     652 41289 20:28:00  9.169351E-03  2.259898E+04  2.259899E+04  2.733061E+16
          (573,343,02)  7.323914E-02  4.846816E-02  4.581675E-01  3.504861E+00
     653 41289 20:32:00  9.170542E-03  2.259895E+04  2.259896E+04  2.733057E+16
          (573,343,02)  7.514866E-02  4.925582E-02  4.685646E-01  3.585682E+00
     654 41289 20:36:00  9.171699E-03  2.259892E+04  2.259893E+04  2.733053E+16
          (573,343,02)  7.696392E-02  4.999200E-02  4.784810E-01  3.661938E+00
     655 41289 20:40:00  9.172817E-03  2.259890E+04  2.259891E+04  2.733048E+16
          (573,343,02)  7.867020E-02  5.067372E-02  4.878187E-01  3.732908E+00
     656 41289 20:44:00  9.173888E-03  2.259887E+04  2.259888E+04  2.733044E+16
          (573,343,01)  7.764727E-02  4.949311E-02  5.011250E-01  3.799051E+00
     657 41289 20:48:00  9.174906E-03  2.259884E+04  2.259885E+04  2.733040E+16
          (573,343,01)  7.906680E-02  5.001872E-02  5.095358E-01  3.860264E+00
     658 41289 20:52:00  9.175869E-03  2.259882E+04  2.259883E+04  2.733035E+16
          (573,343,01)  8.034998E-02  5.045607E-02  5.171866E-01  3.917371E+00
     659 41289 20:56:00  9.176780E-03  2.259879E+04  2.259880E+04  2.733031E+16
          (573,343,01)  8.148536E-02  5.080407E-02  5.239644E-01  3.970661E+00
     660 41289 21:00:00  9.177635E-03  2.259877E+04  2.259877E+04  2.733026E+16
          (573,343,01)  8.246463E-02  5.105906E-02  5.297743E-01  4.020487E+00
     661 41289 21:04:00  9.178432E-03  2.259874E+04  2.259875E+04  2.733022E+16
          (573,343,01)  8.328188E-02  5.121996E-02  5.345255E-01  4.066688E+00
     662 41289 21:08:00  9.179174E-03  2.259871E+04  2.259872E+04  2.733017E+16
          (573,343,01)  8.392910E-02  5.128694E-02  5.381584E-01  4.109140E+00
     663 41289 21:12:00  9.179868E-03  2.259869E+04  2.259870E+04  2.733013E+16
          (573,343,01)  8.440000E-02  5.126199E-02  5.406164E-01  4.147601E+00
     664 41289 21:16:00  9.180512E-03  2.259867E+04  2.259867E+04  2.733008E+16
          (573,343,01)  8.469218E-02  5.114148E-02  5.418624E-01  4.182252E+00
     665 41289 21:20:00  9.181116E-03  2.259864E+04  2.259865E+04  2.733003E+16
          (573,343,01)  8.480107E-02  5.093053E-02  5.418584E-01  4.213361E+00
     666 41289 21:24:00  9.181677E-03  2.259862E+04  2.259863E+04  2.732999E+16
          (573,343,01)  8.472455E-02  5.062892E-02  5.405933E-01  4.241277E+00
     667 41289 21:28:00  9.182205E-03  2.259860E+04  2.259860E+04  2.732994E+16
          (573,343,01)  8.446162E-02  5.023529E-02  5.380490E-01  4.266171E+00
     668 41289 21:32:00  9.182708E-03  2.259857E+04  2.259858E+04  2.732990E+16
          (573,343,01)  8.403089E-02  4.975133E-02  5.342178E-01  4.288118E+00
     669 41289 21:36:00  9.183181E-03  2.259855E+04  2.259856E+04  2.732985E+16
          (573,343,01)  8.338521E-02  4.917681E-02  5.292701E-01  4.306906E+00
     670 41289 21:40:00  9.183618E-03  2.259853E+04  2.259854E+04  2.732981E+16
          (573,343,01)  8.256283E-02  4.850731E-02  5.228392E-01  4.322469E+00
     671 41289 21:44:00  9.184020E-03  2.259851E+04  2.259852E+04  2.732976E+16
          (573,343,01)  8.156846E-02  4.774700E-02  5.152225E-01  4.334630E+00
     672 41289 21:48:00  9.184380E-03  2.259849E+04  2.259850E+04  2.732972E+16
          (573,343,01)  8.041175E-02  4.689638E-02  5.064956E-01  4.343417E+00
     673 41289 21:52:00  9.184698E-03  2.259847E+04  2.259848E+04  2.732968E+16
          (573,343,01)  7.910094E-02  4.596066E-02  4.967341E-01  4.348601E+00
     674 41289 21:56:00  9.184970E-03  2.259845E+04  2.259846E+04  2.732963E+16
          (573,343,01)  7.764587E-02  4.493905E-02  4.860181E-01  4.350067E+00
     675 41289 22:00:00  9.185198E-03  2.259843E+04  2.259844E+04  2.732959E+16
          (573,343,01)  7.605445E-02  4.383782E-02  4.744114E-01  4.347431E+00
     676 41289 22:04:00  9.185379E-03  2.259842E+04  2.259843E+04  2.732955E+16
          (573,343,01)  7.433488E-02  4.266074E-02  4.619896E-01  4.340808E+00
     677 41289 22:08:00  9.185515E-03  2.259840E+04  2.259841E+04  2.732951E+16
          (573,343,01)  7.249453E-02  4.141305E-02  4.488174E-01  4.329590E+00
     678 41289 22:12:00  9.185605E-03  2.259838E+04  2.259839E+04  2.732947E+16
          (573,343,01)  7.054082E-02  4.009949E-02  4.349606E-01  4.313858E+00
     679 41289 22:16:00  9.185651E-03  2.259837E+04  2.259838E+04  2.732943E+16
          (573,343,01)  6.848124E-02  3.872522E-02  4.204855E-01  4.293347E+00
     680 41289 22:20:00  9.185656E-03  2.259835E+04  2.259836E+04  2.732939E+16
          (573,343,01)  6.632448E-02  3.729616E-02  4.054600E-01  4.268040E+00
     681 41289 22:24:00  9.185622E-03  2.259834E+04  2.259835E+04  2.732935E+16
          (719,157,23)  4.208135E-03  1.418835E-02  4.731375E-01  4.237890E+00
     682 41289 22:28:00  9.185555E-03  2.259833E+04  2.259834E+04  2.732931E+16
          (719,157,23)  4.560469E-03  1.539316E-02  4.610501E-01  4.208510E+00
    GET_2DFLD   - surface u-wind component,                  t = 41290 01:30:00
                   (Rec=0011825, Index=2, File: MERRA_Uwind_2009-2014_3hours.nc)
                   (Tmin=      39812.0625 Tmax=      42002.9375)
                   (Min = -6.63663034E+00 Max =  1.16254054E+01)
    GET_2DFLD   - surface v-wind component,                  t = 41290 01:30:00
                   (Rec=0011825, Index=2, File: MERRA_Vwind_2009-2014_3hours.nc)
                   (Tmin=      39812.0625 Tmax=      42002.9375)
                   (Min = -9.76877528E+00 Max =  8.77918058E+00)
    GET_2DFLD   - surface air pressure,                      t = 41290 01:30:00
                   (Rec=0011825, Index=2, File: MERRA_Pair_2009-2014_3hours.nc)
                   (Tmin=      39812.0625 Tmax=      42002.9375)
                   (Min =  9.95188487E+02 Max =  1.02994818E+03)
    GET_2DFLD   - surface air temperature,                   t = 41290 01:30:00
                   (Rec=0011825, Index=2, File: MERRA_Tair_2009-2014_3hours.nc)
                   (Tmin=      39812.0625 Tmax=      42002.9375)
                   (Min = -3.26245208E+01 Max =  3.04746076E+01)
    GET_2DFLD   - surface air relative humidity,             t = 41290 01:30:00
                   (Rec=0011825, Index=2, File: MERRA_Qair_2009-2014_3hours.nc)
                   (Tmin=      39812.0625 Tmax=      42002.9375)
                   (Min =  1.76121792E-04 Max =  1.96923448E-02)
    GET_2DFLD   - solar shortwave radiation flux,            t = 41290 01:30:00
                   (Rec=0011825, Index=2, File: MERRA_swrad_2009-2014_3hours_corr.nc)
                   (Tmin=      39812.0625 Tmax=      42002.9375)
                   (Min =  0.00000000E+00 Max =  1.81060283E-07)
    GET_2DFLD   - downwelling longwave radiation flux,       t = 41290 01:30:00
                   (Rec=0011825, Index=2, File: MERRA_lwrad_down_2009-2014_3hours_corr.nc)
                   (Tmin=      39812.0625 Tmax=      42002.9375)
                   (Min =  3.09450175E-05 Max =  1.25850312E-04)
    GET_2DFLD   - rain fall rate,                            t = 41290 01:30:00
                   (Rec=0011825, Index=2, File: MERRA_rain_2009-2014_3hours.nc)
                   (Tmin=      39812.0625 Tmax=      42002.9375)
                   (Min =  0.00000000E+00 Max =  1.00068705E-03)
     683 41289 22:32:00  9.185459E-03  2.259832E+04  2.259833E+04  2.732927E+16
          (720,158,20)  6.003105E-03  7.490491E-03  4.912493E-01  4.177953E+00
     684 41289 22:36:00  9.185334E-03  2.259831E+04  2.259832E+04  2.732924E+16
          (720,158,20)  5.752357E-03  9.544262E-03  5.103537E-01  4.142326E+00
     685 41289 22:40:00  9.185189E-03  2.259830E+04  2.259831E+04  2.732920E+16
          (720,158,20)  5.477767E-03  1.159636E-02  5.254183E-01  4.098503E+00
     686 41289 22:44:00  9.185023E-03  2.259829E+04  2.259830E+04  2.732917E+16
          (720,158,19)  5.075113E-03  1.241014E-02  5.379490E-01  4.052051E+00
     687 41289 22:48:00  9.184841E-03  2.259828E+04  2.259829E+04  2.732913E+16
          (720,158,19)  4.806057E-03  1.443116E-02  5.449856E-01  3.999409E+00
     688 41289 22:52:00  9.184650E-03  2.259827E+04  2.259828E+04  2.732910E+16
          (720,158,19)  4.387442E-03  1.647471E-02  5.470235E-01  3.943188E+00
     689 41289 22:56:00  9.184449E-03  2.259826E+04  2.259827E+04  2.732907E+16
          (720,158,19)  3.950126E-03  1.853585E-02  5.478464E-01  3.882428E+00
     690 41289 23:00:00  9.184248E-03  2.259826E+04  2.259827E+04  2.732904E+16
          (720,158,19)  3.515172E-03  2.059076E-02  5.440991E-01  3.817298E+00
     691 41289 23:04:00  9.184048E-03  2.259825E+04  2.259826E+04  2.732901E+16
          (720,158,19)  3.068860E-03  2.261487E-02  5.355949E-01  3.748285E+00
     692 41289 23:08:00  9.183852E-03  2.259825E+04  2.259826E+04  2.732898E+16
          (720,158,17)  2.733623E-03  2.226155E-02  5.257806E-01  3.676273E+00
     693 41289 23:12:00  9.183665E-03  2.259825E+04  2.259826E+04  2.732896E+16
          (720,158,09)  6.244458E-04  1.137618E-02  5.351787E-01  3.602531E+00
     694 41289 23:16:00  9.183490E-03  2.259825E+04  2.259825E+04  2.732893E+16
          (720,158,09)  7.734193E-04  1.057084E-02  5.407266E-01  3.537060E+00
     695 41289 23:20:00  9.183330E-03  2.259824E+04  2.259825E+04  2.732891E+16
          (720,158,09)  9.732322E-04  9.503473E-03  5.410785E-01  3.460307E+00
     696 41289 23:24:00  9.183192E-03  2.259824E+04  2.259825E+04  2.732889E+16
          (720,158,08)  5.647711E-05  1.686231E-02  5.341394E-01  3.382331E+00
     697 41289 23:28:00  9.183076E-03  2.259824E+04  2.259825E+04  2.732886E+16
          (720,158,08)  2.006084E-04  1.658432E-02  5.351105E-01  3.313102E+00
     698 41289 23:32:00  9.182989E-03  2.259825E+04  2.259826E+04  2.732884E+16
          (720,158,08)  5.529444E-04  1.599329E-02  5.314294E-01  3.264330E+00
     699 41289 23:36:00  9.182935E-03  2.259825E+04  2.259826E+04  2.732883E+16
          (720,158,08)  9.162711E-04  1.506466E-02  5.234375E-01  3.210297E+00
     700 41289 23:40:00  9.182920E-03  2.259825E+04  2.259826E+04  2.732881E+16
          (719,158,21)  2.568741E-03  9.102916E-03  5.264031E-01  3.152637E+00
     701 41289 23:44:00  9.182945E-03  2.259826E+04  2.259827E+04  2.732879E+16
          (719,158,21)  2.933471E-03  1.007567E-02  5.237539E-01  3.090808E+00
     702 41289 23:48:00  9.183018E-03  2.259826E+04  2.259827E+04  2.732878E+16
          (719,158,21)  3.258843E-03  1.102435E-02  5.171246E-01  3.023511E+00
     703 41289 23:52:00  9.183141E-03  2.259827E+04  2.259828E+04  2.732877E+16
          (719,158,21)  3.542768E-03  1.193064E-02  5.066051E-01  2.952530E+00
     704 41289 23:56:00  9.183319E-03  2.259828E+04  2.259829E+04  2.732875E+16
          (719,158,21)  3.780740E-03  1.278913E-02  4.924521E-01  2.877995E+00
     705 41290 00:00:00  9.183556E-03  2.259828E+04  2.259829E+04  2.732874E+16
          (719,158,21)  3.968083E-03  1.359585E-02  4.748435E-01  2.800009E+00
     706 41290 00:04:00  9.183856E-03  2.259829E+04  2.259830E+04  2.732874E+16
          (719,158,21)  4.101549E-03  1.434771E-02  4.540921E-01  2.719472E+00
     707 41290 00:08:00  9.184220E-03  2.259830E+04  2.259831E+04  2.732873E+16
          (720,158,06)  6.843054E-04  2.342686E-02  4.317092E-01  2.633962E+00
     708 41290 00:12:00  9.184657E-03  2.259831E+04  2.259832E+04  2.732872E+16
          (720,158,05)  2.091646E-03  2.791998E-02  4.181492E-01  2.549659E+00
     709 41290 00:16:00  9.185161E-03  2.259833E+04  2.259834E+04  2.732872E+16
          (718,158,23)  6.128123E-04  1.953697E-03  4.481727E-01  2.464674E+00
     710 41290 00:20:00  9.185742E-03  2.259834E+04  2.259835E+04  2.732872E+16
          (718,158,23)  8.279234E-04  2.642079E-03  4.503333E-01  2.380196E+00
     711 41290 00:24:00  9.186399E-03  2.259835E+04  2.259836E+04  2.732872E+16
          (718,158,23)  1.016433E-03  3.318684E-03  4.493671E-01  2.333248E+00
     712 41290 00:28:00  9.187133E-03  2.259837E+04  2.259838E+04  2.732872E+16
          (718,158,23)  1.176002E-03  3.978147E-03  4.452106E-01  2.333104E+00
     713 41290 00:32:00  9.187947E-03  2.259838E+04  2.259839E+04  2.732872E+16
          (718,158,23)  1.305336E-03  4.609667E-03  4.379176E-01  2.332665E+00
     714 41290 00:36:00  9.188842E-03  2.259840E+04  2.259841E+04  2.732872E+16
          (720,158,02)  4.558292E-03  3.427932E-02  3.986517E-01  2.331943E+00
     715 41290 00:40:00  9.189818E-03  2.259841E+04  2.259842E+04  2.732873E+16
          (720,158,02)  4.783636E-03  3.531037E-02  4.037171E-01  2.330908E+00
     716 41290 00:44:00  9.190877E-03  2.259843E+04  2.259844E+04  2.732873E+16
          (720,158,02)  5.042641E-03  3.630970E-02  4.086305E-01  2.329605E+00
     717 41290 00:48:00  9.192017E-03  2.259845E+04  2.259846E+04  2.732874E+16
          (720,158,02)  5.335744E-03  3.727099E-02  4.133423E-01  2.328042E+00
     718 41290 00:52:00  9.193241E-03  2.259847E+04  2.259848E+04  2.732875E+16
          (720,158,02)  5.662200E-03  3.818799E-02  4.178079E-01  2.326239E+00
     719 41290 00:56:00  9.194546E-03  2.259849E+04  2.259850E+04  2.732876E+16
          (720,158,02)  6.023493E-03  3.905363E-02  4.219858E-01  2.324215E+00
     720 41290 01:00:00  9.195932E-03  2.259851E+04  2.259852E+04  2.732878E+16
          (720,158,02)  6.416155E-03  3.985861E-02  4.258026E-01  2.321986E+00
      DEF_AVG     - creating  average      file, Grid 01: /gpfs/scratchfs1/kmm18005-lab/myromsdir/output/lastrun/NWA-KM_avg_00002.nc
srun: Job step aborted: Waiting up to 32 seconds for job step to finish.
slurmstepd: *** JOB 3931941 ON cn181 CANCELLED AT 2020-12-07T14:35:24 ***
