
 Model Input Parameters:  ROMS/TOMS version 3.7  
                          Thursday - November 19, 2020 - 12:03:57 PM
 -----------------------------------------------------------------------------

 Northwest Atlantic 7km Grid

 Operating system : Linux
 CPU/hardware     : x86_64
 Compiler system  : ifort
 Compiler command : /apps2/mpich2/1.5-ics/bin/mpif90
 Compiler flags   : -heap-arrays -fp-model precise -g -check uninit -ftrapuv -traceback -check bounds -free -free

 Input Script  : 

 SVN Root URL  : https:://myroms.org/svn/src
 SVN Revision  : exported

 Local Root    : /gpfs/scratchfs1/kmm18005-lab/myromsdir/roms
 Header Dir    : /gpfs/scratchfs1/kmm18005-lab/myromsdir/roms/User/Include
 Header file   : nwa.h
 Analytical Dir: /gpfs/scratchfs1/kmm18005-lab/myromsdir/roms/ROMS/Functionals

 Resolution, Grid 01: 0720x0360x040,  Parallel Nodes: 192,  Tiling: 012x016


 Physical Parameters, Grid: 01
 =============================

     370000  ntimes            Number of timesteps for 3-D equations.
    240.000  dt                Timestep size (s) for 3-D equations.
         30  ndtfast           Number of timesteps for 2-D equations between
                                 each 3D timestep.
          1  ERstr             Starting ensemble/perturbation run number.
          1  ERend             Ending ensemble/perturbation run number.
          0  nrrec             Number of restart records to read from disk.
          T  LcycleRST         Switch to recycle time-records in restart file.
       1800  nRST              Number of timesteps between the writing of data
                                 into restart fields.
          1  ninfo             Number of timesteps between print of information
                                 to standard output.
          F  ldefout           Switch to create a new output NetCDF file(s).
        360  nHIS              Number of timesteps between the writing fields
                                 into history file.
        360  ndefHIS           Number of timesteps between creation of new
                                 history files.
          0  nQCK              Number of timesteps between the writing fields
                                 into quicksave file.
          1  ntsAVG            Starting timestep for the accumulation of output
                                 time-averaged data.
        360  nAVG              Number of timesteps between the writing of
                                 time-averaged data into averages file.
        360  ndefAVG           Number of timesteps between creation of new
                                 time-averaged file.
 5.0000E+00  nl_tnu2(01)       NLM Horizontal, harmonic mixing coefficient
                                 (m2/s) for tracer 01: temp
 5.0000E+00  nl_tnu2(02)       NLM Horizontal, harmonic mixing coefficient
                                 (m2/s) for tracer 02: salt
 2.5000E+01  nl_visc2          NLM Horizontal, harmonic mixing coefficient
                                 (m2/s) for momentum.
          F  LuvSponge         Turning OFF sponge on horizontal momentum.
          F  LtracerSponge(01) Turning OFF sponge on tracer 01: temp
          F  LtracerSponge(02) Turning OFF sponge on tracer 02: salt
 1.0000E-06  Akt_bak(01)       Background vertical mixing coefficient (m2/s)
                                 for tracer 01: temp
 1.0000E-06  Akt_bak(02)       Background vertical mixing coefficient (m2/s)
                                 for tracer 02: salt
 1.0000E-05  Akv_bak           Background vertical mixing coefficient (m2/s)
                                 for momentum.
 3.0000E-04  rdrg              Linear bottom drag coefficient (m/s).
 3.0000E-03  rdrg2             Quadratic bottom drag coefficient.
 2.0000E-02  Zob               Bottom roughness (m).
 1.0000E+01  blk_ZQ            Height (m) of surface air humidity measurement.
 1.0000E+01  blk_ZT            Height (m) of surface air temperature measurement.
 1.0000E+01  blk_ZW            Height (m) of surface winds measurement.
          1  lmd_Jwt           Jerlov water type.
          2  Vtransform        S-coordinate transformation equation.
          4  Vstretching       S-coordinate stretching function.
 7.0000E+00  theta_s           S-coordinate surface control parameter.
 2.0000E+00  theta_b           S-coordinate bottom  control parameter.
    250.000  Tcline            S-coordinate surface/bottom layer width (m) used
                                 in vertical coordinate stretching.
   1025.000  rho0              Mean density (kg/m3) for Boussinesq approximation.
  40925.040  dstart            Time-stamp assigned to model initialization (days).
     -1.000  tide_start        Reference time origin for tidal forcing (days).
19000101.00  time_ref          Reference time for units attribute (yyyymmdd.dd)
 3.6000E+02  Tnudg(01)         Nudging/relaxation time scale (days)
                                 for tracer 01: temp
 3.6000E+02  Tnudg(02)         Nudging/relaxation time scale (days)
                                 for tracer 02: salt
 9.0000E+01  Tnudg_SSS         Nudging/relaxation time scale (days)
                                 for sea surface salinity.
 1.0000E-01  sss_mismatch_thresdifference in SSS that triggers correction
                                 for sea surface salinity.
 3.6000E+02  Znudg             Nudging/relaxation time scale (days)
                                 for free-surface.
 3.6000E+02  M2nudg            Nudging/relaxation time scale (days)
                                 for 2D momentum.
 3.6000E+02  M3nudg            Nudging/relaxation time scale (days)
                                 for 3D momentum.
 1.2000E+02  obcfac            Factor between passive and active
                                 open boundary conditions.
          F  VolCons(1)        NLM western  edge boundary volume conservation.
          F  VolCons(2)        NLM southern edge boundary volume conservation.
          F  VolCons(3)        NLM eastern  edge boundary volume conservation.
          F  VolCons(4)        NLM northern edge boundary volume conservation.
     10.000  T0                Background potential temperature (C) constant.
     35.000  S0                Background salinity (PSU) constant.
      1.000  gamma2            Slipperiness variable: free-slip (1.0) or 
                                                      no-slip (-1.0).
          F  LuvSrc            Turning OFF momentum point Sources/Sinks.
          F  LwSrc             Turning OFF volume influx point Sources/Sinks.
          F  LtracerSrc(01)    Turning OFF point Sources/Sinks on tracer 01: temp
          F  LtracerSrc(02)    Turning OFF point Sources/Sinks on tracer 02: salt
          T  LsshCLM           Turning ON  processing of SSH climatology.
          T  Lm2CLM            Turning ON  processing of 2D momentum climatology.
          T  Lm3CLM            Turning ON  processing of 3D momentum climatology.
          T  LtracerCLM(01)    Turning ON  processing of climatology tracer 01: temp
          T  LtracerCLM(02)    Turning ON  processing of climatology tracer 02: salt
          T  LnudgeM2CLM       Turning ON  nudging of 2D momentum climatology.
          T  LnudgeM3CLM       Turning ON  nudging of 3D momentum climatology.
          T  LnudgeTCLM(01)    Turning ON  nudging of climatology tracer 01: temp
          T  LnudgeTCLM(02)    Turning ON  nudging of climatology tracer 02: salt

          T  Hout(idFsur)      Write out free-surface.
          T  Hout(idUbar)      Write out 2D U-momentum component.
          T  Hout(idVbar)      Write out 2D V-momentum component.
          T  Hout(idUvel)      Write out 3D U-momentum component.
          T  Hout(idVvel)      Write out 3D V-momentum component.
          T  Hout(idWvel)      Write out W-momentum component.
          T  Hout(idOvel)      Write out omega vertical velocity.
          T  Hout(idTvar)      Write out tracer 01: temp
          T  Hout(idTvar)      Write out tracer 02: salt
          T  Hout(idTsur)      Write out surface net heat flux.
          T  Hout(idTsur)      Write out surface net salt flux.
          T  Hout(idSrad)      Write out shortwave radiation flux.
          T  Hout(idLrad)      Write out longwave radiation flux.
          T  Hout(idLhea)      Write out latent heat flux.
          T  Hout(idShea)      Write out sensible heat flux.
          T  Hout(idEmPf)      Write out E-P flux.
          T  Hout(idevap)      Write out evaporation rate.
          T  Hout(idrain)      Write out rain rate.
          T  Hout(idVvis)      Write out vertical viscosity: AKv.
          T  Hout(idTdif)      Write out vertical diffusion: AKt(itemp).
          T  Hout(idHsbl)      Write out depth of surface boundary layer.

          T  Aout(idFsur)      Write out averaged free-surface.
          T  Aout(idUbar)      Write out averaged 2D U-momentum component.
          T  Aout(idVbar)      Write out averaged 2D V-momentum component.
          T  Aout(idUvel)      Write out averaged 3D U-momentum component.
          T  Aout(idVvel)      Write out averaged 3D V-momentum component.
          T  Aout(idWvel)      Write out averaged W-momentum component.
          T  Aout(idOvel)      Write out averaged omega vertical velocity.
          T  Aout(idTvar)      Write out averaged tracer 01: temp
          T  Aout(idTvar)      Write out averaged tracer 02: salt
          T  Aout(idUsms)      Write out averaged surface U-momentum stress.
          T  Aout(idVsms)      Write out averaged surface V-momentum stress.
          T  Aout(idRunoff)    Write out averaged surface fresh water input via runoff.
          T  Aout(idPair)      Write out averaged surface air pressure.
          T  Aout(idUair)      Write out averaged surface U-wind component.
          T  Aout(idVair)      Write out averaged surface V-wind component.
          T  Aout(idTsur)      Write out averaged surface net heat flux.
          T  Aout(idTsur)      Write out averaged surface net salt flux.
          T  Aout(idSrad)      Write out averaged shortwave radiation flux.
          T  Aout(idLrad)      Write out averaged longwave radiation flux.
          T  Aout(idLhea)      Write out averaged latent heat flux.
          T  Aout(idShea)      Write out averaged sensible heat flux.
          T  Aout(idevap)      Write out averaged evaporation rate.
          T  Aout(idrain)      Write out averaged rain rate.
          T  Aout(idDano)      Write out averaged density anomaly.
          T  Aout(idVvis)      Write out averaged vertical viscosity: AKv.
          T  Aout(idTdif)      Write out averaged vertical diffusion: AKt(itemp).
          T  Aout(idHsbl)      Write out averaged depth of surface boundary layer.

 Output/Input Files:

             Output Restart File:  /gpfs/scratchfs1/kmm18005-lab/myromsdir/output/NWA-KM_rst.nc
        Prefix for History Files:  /gpfs/scratchfs1/kmm18005-lab/myromsdir/output/NWA-KM_his
       Prefix for Averages Files:  /gpfs/scratchfs1/kmm18005-lab/myromsdir/output/NWA-KM_avg
                 Input Grid File:  /gpfs/scratchfs1/kmm18005-lab/roms_a8cdf6/roms/Data/ROMS/Grid/NWA_grd.nc
    Input Nonlinear Initial File:  /gpfs/scratchfs1/kmm18005-lab/myromsdir/input/NWA_avg_fmumem.nc
           Input Forcing File 01:  /gpfs/scratchfs1/kmm18005-lab/myromsdir/input/MERRA/MERRA_lwrad_down_2009-2014_3hours_corr.nc
           Input Forcing File 02:  /gpfs/scratchfs1/kmm18005-lab/myromsdir/input/MERRA/MERRA_Pair_2009-2014_3hours.nc
           Input Forcing File 03:  /gpfs/scratchfs1/kmm18005-lab/myromsdir/input/MERRA/MERRA_Qair_2009-2014_3hours.nc
           Input Forcing File 04:  /gpfs/scratchfs1/kmm18005-lab/myromsdir/input/MERRA/MERRA_rain_2009-2014_3hours.nc
           Input Forcing File 05:  /gpfs/scratchfs1/kmm18005-lab/myromsdir/input/MERRA/MERRA_swrad_2009-2014_3hours_corr.nc
           Input Forcing File 06:  /gpfs/scratchfs1/kmm18005-lab/myromsdir/input/MERRA/MERRA_Tair_2009-2014_3hours.nc
           Input Forcing File 07:  /gpfs/scratchfs1/kmm18005-lab/myromsdir/input/MERRA/MERRA_Uwind_2009-2014_3hours.nc
           Input Forcing File 08:  /gpfs/scratchfs1/kmm18005-lab/myromsdir/input/MERRA/MERRA_Vwind_2009-2014_3hours.nc
           Input Forcing File 09:  /gpfs/scratchfs1/kmm18005-lab/myromsdir/input/runoff_NWA_daitren_inter_annual_1948-2015.nc
           Input Forcing File 10:  /gpfs/scratchfs1/kmm18005-lab/myromsdir/input/sss_monthly_climato_flooded.nc
           Input Forcing File 11:  /gpfs/scratchfs1/kmm18005-lab/myromsdir/input/NWA_tides_otps.nc
           Input Forcing File 12:  /gpfs/scratchfs1/kmm18005-lab/myromsdir/input/composite_CO2_MLO+GLO.nc
           Input Forcing File 13:  /gpfs/scratchfs1/kmm18005-lab/myromsdir/input/Soluble_Fe_Flux_PI_ROMS.nc
           Input Forcing File 14:  /gpfs/scratchfs1/kmm18005-lab/myromsdir/input/iron_sediment_NWA.nc
           Input Forcing File 15:  /gpfs/scratchfs1/kmm18005-lab/myromsdir/input/Mineral_Fe_Flux_PI_ROMS.nc
           Input Forcing File 16:  /gpfs/scratchfs1/kmm18005-lab/myromsdir/input/NEWS/NWA_river_ldon_runoff_bio_NEWS_y1948-2015.nc
           Input Forcing File 17:  /gpfs/scratchfs1/kmm18005-lab/myromsdir/input/NEWS/NWA_river_ndet_runoff_bio_NEWS_y1948-2015.nc
           Input Forcing File 18:  /gpfs/scratchfs1/kmm18005-lab/myromsdir/input/NEWS/NWA_river_no3_runoff_bio_NEWS_y1948-2015.nc
           Input Forcing File 19:  /gpfs/scratchfs1/kmm18005-lab/myromsdir/input/NEWS/NWA_river_sldon_runoff_bio_NEWS_y1948-2015.nc
           Input Forcing File 20:  /gpfs/scratchfs1/kmm18005-lab/myromsdir/input/NEWS/NWA_river_srdon_runoff_bio_NEWS_y1948-2015.nc
           Input Forcing File 21:  /gpfs/scratchfs1/kmm18005-lab/myromsdir/input/NEWS/NWA_river_po4_runoff_bio_NEWS_y1948-2015.nc
           Input Forcing File 22:  /gpfs/scratchfs1/kmm18005-lab/myromsdir/input/NEWS/NWA_river_ldop_runoff_bio_NEWS_y1948-2015.nc
           Input Forcing File 23:  /gpfs/scratchfs1/kmm18005-lab/myromsdir/input/NEWS/NWA_river_sldop_runoff_bio_NEWS_y1948-2015.nc
           Input Forcing File 24:  /gpfs/scratchfs1/kmm18005-lab/myromsdir/input/NEWS/NWA_river_srdop_runoff_bio_NEWS_y1948-2015.nc
          Input Climatology File:  /gpfs/scratchfs1/kmm18005-lab/myromsdir/input/clim_SODA/NWA_clim_SODA3.3.1_y2012.nc
                                   /gpfs/scratchfs1/kmm18005-lab/myromsdir/input/clim_SODA/NWA_clim_SODA3.3.1_y2013.nc
                                   /gpfs/scratchfs1/kmm18005-lab/myromsdir/input/clim_SODA/NWA_clim_SODA3.3.1_y2014.nc
          Input Climatology File:  /gpfs/scratchfs1/kmm18005-lab/myromsdir/input/clim_bio_edit.nc
   Input Nudge Coefficients File:  /gpfs/scratchfs1/kmm18005-lab/myromsdir/input/NWA_nudging_coef.nc
         Input Boundary File 01:  /gpfs/scratchfs1/kmm18005-lab/myromsdir/input/bdry_SODA/NWA_bdry_SODA3.3.1_y2012.nc
                                   /gpfs/scratchfs1/kmm18005-lab/myromsdir/input/bdry_SODA/NWA_bdry_SODA3.3.1_y2013.nc
                                   /gpfs/scratchfs1/kmm18005-lab/myromsdir//input/bdry_SODA/NWA_bdry_SODA3.3.1_y2014.nc
         Input Boundary File 02:  /gpfs/scratchfs1/kmm18005-lab/myromsdir/input/NWA_bdry_bio.nc
         Biology Parameters File:  /gpfs/scratchfs1/kmm18005-lab/myromsdir/roms/bio_Cobalt.in.full

 Tile partition information for Grid 01:  0720x0360x0040  tiling: 012x016

     tile     Istr     Iend     Jstr     Jend     Npts

 Number of tracers:           26
        0        1       60        1       19    45600
        1       61      120        1       19    45600
        2      121      180        1       19    45600
        3      181      240        1       19    45600
        4      241      300        1       19    45600
        5      301      360        1       19    45600
        6      361      420        1       19    45600
        7      421      480        1       19    45600
        8      481      540        1       19    45600
        9      541      600        1       19    45600
       10      601      660        1       19    45600
       11      661      720        1       19    45600
       12        1       60       20       42    55200
       13       61      120       20       42    55200
       14      121      180       20       42    55200
       15      181      240       20       42    55200
       16      241      300       20       42    55200
       17      301      360       20       42    55200
       18      361      420       20       42    55200
       19      421      480       20       42    55200
       20      481      540       20       42    55200
       21      541      600       20       42    55200
       22      601      660       20       42    55200
       23      661      720       20       42    55200
       24        1       60       43       65    55200
       25       61      120       43       65    55200
       26      121      180       43       65    55200
       27      181      240       43       65    55200
       28      241      300       43       65    55200
       29      301      360       43       65    55200
       30      361      420       43       65    55200
       31      421      480       43       65    55200
       32      481      540       43       65    55200
       33      541      600       43       65    55200
       34      601      660       43       65    55200
       35      661      720       43       65    55200
       36        1       60       66       88    55200
       37       61      120       66       88    55200
       38      121      180       66       88    55200
       39      181      240       66       88    55200
       40      241      300       66       88    55200
       41      301      360       66       88    55200
       42      361      420       66       88    55200
       43      421      480       66       88    55200
       44      481      540       66       88    55200
       45      541      600       66       88    55200
       46      601      660       66       88    55200
       47      661      720       66       88    55200
       48        1       60       89      111    55200
       49       61      120       89      111    55200
       50      121      180       89      111    55200
       51      181      240       89      111    55200
       52      241      300       89      111    55200
       53      301      360       89      111    55200
       54      361      420       89      111    55200
       55      421      480       89      111    55200
       56      481      540       89      111    55200
       57      541      600       89      111    55200
       58      601      660       89      111    55200
       59      661      720       89      111    55200
       60        1       60      112      134    55200
       61       61      120      112      134    55200
       62      121      180      112      134    55200
       63      181      240      112      134    55200
       64      241      300      112      134    55200
       65      301      360      112      134    55200
       66      361      420      112      134    55200
       67      421      480      112      134    55200
       68      481      540      112      134    55200
       69      541      600      112      134    55200
       70      601      660      112      134    55200
       71      661      720      112      134    55200
       72        1       60      135      157    55200
       73       61      120      135      157    55200
       74      121      180      135      157    55200
       75      181      240      135      157    55200
       76      241      300      135      157    55200
       77      301      360      135      157    55200
       78      361      420      135      157    55200
       79      421      480      135      157    55200
       80      481      540      135      157    55200
       81      541      600      135      157    55200
       82      601      660      135      157    55200
       83      661      720      135      157    55200
       84        1       60      158      180    55200
       85       61      120      158      180    55200
       86      121      180      158      180    55200
       87      181      240      158      180    55200
       88      241      300      158      180    55200
       89      301      360      158      180    55200
       90      361      420      158      180    55200
       91      421      480      158      180    55200
       92      481      540      158      180    55200
       93      541      600      158      180    55200
       94      601      660      158      180    55200
       95      661      720      158      180    55200
       96        1       60      181      203    55200
       97       61      120      181      203    55200
       98      121      180      181      203    55200
       99      181      240      181      203    55200
      100      241      300      181      203    55200
      101      301      360      181      203    55200
      102      361      420      181      203    55200
      103      421      480      181      203    55200
      104      481      540      181      203    55200
      105      541      600      181      203    55200
      106      601      660      181      203    55200
      107      661      720      181      203    55200
      108        1       60      204      226    55200
      109       61      120      204      226    55200
      110      121      180      204      226    55200
      111      181      240      204      226    55200
      112      241      300      204      226    55200
      113      301      360      204      226    55200
      114      361      420      204      226    55200
      115      421      480      204      226    55200
      116      481      540      204      226    55200
      117      541      600      204      226    55200
      118      601      660      204      226    55200
      119      661      720      204      226    55200
      120        1       60      227      249    55200
      121       61      120      227      249    55200
      122      121      180      227      249    55200
      123      181      240      227      249    55200
      124      241      300      227      249    55200
      125      301      360      227      249    55200
      126      361      420      227      249    55200
      127      421      480      227      249    55200
      128      481      540      227      249    55200
      129      541      600      227      249    55200
      130      601      660      227      249    55200
      131      661      720      227      249    55200
      132        1       60      250      272    55200
      133       61      120      250      272    55200
      134      121      180      250      272    55200
      135      181      240      250      272    55200
      136      241      300      250      272    55200
      137      301      360      250      272    55200
      138      361      420      250      272    55200
      139      421      480      250      272    55200
      140      481      540      250      272    55200
      141      541      600      250      272    55200
      142      601      660      250      272    55200
      143      661      720      250      272    55200
      144        1       60      273      295    55200
      145       61      120      273      295    55200
      146      121      180      273      295    55200
      147      181      240      273      295    55200
      148      241      300      273      295    55200
      149      301      360      273      295    55200
      150      361      420      273      295    55200
      151      421      480      273      295    55200
      152      481      540      273      295    55200
      153      541      600      273      295    55200
      154      601      660      273      295    55200
      155      661      720      273      295    55200
      156        1       60      296      318    55200
      157       61      120      296      318    55200
      158      121      180      296      318    55200
      159      181      240      296      318    55200
      160      241      300      296      318    55200
      161      301      360      296      318    55200
      162      361      420      296      318    55200
      163      421      480      296      318    55200
      164      481      540      296      318    55200
      165      541      600      296      318    55200
      166      601      660      296      318    55200
      167      661      720      296      318    55200
      168        1       60      319      341    55200
      169       61      120      319      341    55200
      170      121      180      319      341    55200
      171      181      240      319      341    55200
      172      241      300      319      341    55200
      173      301      360      319      341    55200
      174      361      420      319      341    55200
      175      421      480      319      341    55200
      176      481      540      319      341    55200
      177      541      600      319      341    55200
      178      601      660      319      341    55200
      179      661      720      319      341    55200
      180        1       60      342      360    45600
      181       61      120      342      360    45600
      182      121      180      342      360    45600
      183      181      240      342      360    45600
      184      241      300      342      360    45600
      185      301      360      342      360    45600
      186      361      420      342      360    45600
      187      421      480      342      360    45600
      188      481      540      342      360    45600
      189      541      600      342      360    45600
      190      601      660      342      360    45600
      191      661      720      342      360    45600

 Tile minimum and maximum fractional coordinates for Grid 01:
   (interior points only)

     tile     Xmin     Xmax     Ymin     Ymax     grid

        0     0.50    60.50     0.50    19.50  RHO-points
        1    60.50   120.50     0.50    19.50  RHO-points
        2   120.50   180.50     0.50    19.50  RHO-points
        3   180.50   240.50     0.50    19.50  RHO-points
        4   240.50   300.50     0.50    19.50  RHO-points
        5   300.50   360.50     0.50    19.50  RHO-points
        6   360.50   420.50     0.50    19.50  RHO-points
        7   420.50   480.50     0.50    19.50  RHO-points
        8   480.50   540.50     0.50    19.50  RHO-points
        9   540.50   600.50     0.50    19.50  RHO-points
       10   600.50   660.50     0.50    19.50  RHO-points
       11   660.50   720.50     0.50    19.50  RHO-points
       12     0.50    60.50    19.50    42.50  RHO-points
       13    60.50   120.50    19.50    42.50  RHO-points
       14   120.50   180.50    19.50    42.50  RHO-points
       15   180.50   240.50    19.50    42.50  RHO-points
       16   240.50   300.50    19.50    42.50  RHO-points
       17   300.50   360.50    19.50    42.50  RHO-points
       18   360.50   420.50    19.50    42.50  RHO-points
       19   420.50   480.50    19.50    42.50  RHO-points
       20   480.50   540.50    19.50    42.50  RHO-points
       21   540.50   600.50    19.50    42.50  RHO-points
       22   600.50   660.50    19.50    42.50  RHO-points
       23   660.50   720.50    19.50    42.50  RHO-points
       24     0.50    60.50    42.50    65.50  RHO-points
       25    60.50   120.50    42.50    65.50  RHO-points
       26   120.50   180.50    42.50    65.50  RHO-points
       27   180.50   240.50    42.50    65.50  RHO-points
       28   240.50   300.50    42.50    65.50  RHO-points
       29   300.50   360.50    42.50    65.50  RHO-points
       30   360.50   420.50    42.50    65.50  RHO-points
       31   420.50   480.50    42.50    65.50  RHO-points
       32   480.50   540.50    42.50    65.50  RHO-points
       33   540.50   600.50    42.50    65.50  RHO-points
       34   600.50   660.50    42.50    65.50  RHO-points
       35   660.50   720.50    42.50    65.50  RHO-points
       36     0.50    60.50    65.50    88.50  RHO-points
       37    60.50   120.50    65.50    88.50  RHO-points
       38   120.50   180.50    65.50    88.50  RHO-points
       39   180.50   240.50    65.50    88.50  RHO-points
       40   240.50   300.50    65.50    88.50  RHO-points
       41   300.50   360.50    65.50    88.50  RHO-points
       42   360.50   420.50    65.50    88.50  RHO-points
       43   420.50   480.50    65.50    88.50  RHO-points
       44   480.50   540.50    65.50    88.50  RHO-points
       45   540.50   600.50    65.50    88.50  RHO-points
       46   600.50   660.50    65.50    88.50  RHO-points
       47   660.50   720.50    65.50    88.50  RHO-points
       48     0.50    60.50    88.50   111.50  RHO-points
       49    60.50   120.50    88.50   111.50  RHO-points
       50   120.50   180.50    88.50   111.50  RHO-points
       51   180.50   240.50    88.50   111.50  RHO-points
       52   240.50   300.50    88.50   111.50  RHO-points
       53   300.50   360.50    88.50   111.50  RHO-points
       54   360.50   420.50    88.50   111.50  RHO-points
       55   420.50   480.50    88.50   111.50  RHO-points
       56   480.50   540.50    88.50   111.50  RHO-points
       57   540.50   600.50    88.50   111.50  RHO-points
       58   600.50   660.50    88.50   111.50  RHO-points
       59   660.50   720.50    88.50   111.50  RHO-points
       60     0.50    60.50   111.50   134.50  RHO-points
       61    60.50   120.50   111.50   134.50  RHO-points
       62   120.50   180.50   111.50   134.50  RHO-points
       63   180.50   240.50   111.50   134.50  RHO-points
       64   240.50   300.50   111.50   134.50  RHO-points
       65   300.50   360.50   111.50   134.50  RHO-points
       66   360.50   420.50   111.50   134.50  RHO-points
       67   420.50   480.50   111.50   134.50  RHO-points
       68   480.50   540.50   111.50   134.50  RHO-points
       69   540.50   600.50   111.50   134.50  RHO-points
       70   600.50   660.50   111.50   134.50  RHO-points
       71   660.50   720.50   111.50   134.50  RHO-points
       72     0.50    60.50   134.50   157.50  RHO-points
       73    60.50   120.50   134.50   157.50  RHO-points
       74   120.50   180.50   134.50   157.50  RHO-points
       75   180.50   240.50   134.50   157.50  RHO-points
       76   240.50   300.50   134.50   157.50  RHO-points
       77   300.50   360.50   134.50   157.50  RHO-points
       78   360.50   420.50   134.50   157.50  RHO-points
       79   420.50   480.50   134.50   157.50  RHO-points
       80   480.50   540.50   134.50   157.50  RHO-points
       81   540.50   600.50   134.50   157.50  RHO-points
       82   600.50   660.50   134.50   157.50  RHO-points
       83   660.50   720.50   134.50   157.50  RHO-points
       84     0.50    60.50   157.50   180.50  RHO-points
       85    60.50   120.50   157.50   180.50  RHO-points
       86   120.50   180.50   157.50   180.50  RHO-points
       87   180.50   240.50   157.50   180.50  RHO-points
       88   240.50   300.50   157.50   180.50  RHO-points
       89   300.50   360.50   157.50   180.50  RHO-points
       90   360.50   420.50   157.50   180.50  RHO-points
       91   420.50   480.50   157.50   180.50  RHO-points
       92   480.50   540.50   157.50   180.50  RHO-points
       93   540.50   600.50   157.50   180.50  RHO-points
       94   600.50   660.50   157.50   180.50  RHO-points
       95   660.50   720.50   157.50   180.50  RHO-points
       96     0.50    60.50   180.50   203.50  RHO-points
       97    60.50   120.50   180.50   203.50  RHO-points
       98   120.50   180.50   180.50   203.50  RHO-points
       99   180.50   240.50   180.50   203.50  RHO-points
      100   240.50   300.50   180.50   203.50  RHO-points
      101   300.50   360.50   180.50   203.50  RHO-points
      102   360.50   420.50   180.50   203.50  RHO-points
      103   420.50   480.50   180.50   203.50  RHO-points
      104   480.50   540.50   180.50   203.50  RHO-points
      105   540.50   600.50   180.50   203.50  RHO-points
      106   600.50   660.50   180.50   203.50  RHO-points
      107   660.50   720.50   180.50   203.50  RHO-points
      108     0.50    60.50   203.50   226.50  RHO-points
      109    60.50   120.50   203.50   226.50  RHO-points
      110   120.50   180.50   203.50   226.50  RHO-points
      111   180.50   240.50   203.50   226.50  RHO-points
      112   240.50   300.50   203.50   226.50  RHO-points
      113   300.50   360.50   203.50   226.50  RHO-points
      114   360.50   420.50   203.50   226.50  RHO-points
      115   420.50   480.50   203.50   226.50  RHO-points
      116   480.50   540.50   203.50   226.50  RHO-points
      117   540.50   600.50   203.50   226.50  RHO-points
      118   600.50   660.50   203.50   226.50  RHO-points
      119   660.50   720.50   203.50   226.50  RHO-points
      120     0.50    60.50   226.50   249.50  RHO-points
      121    60.50   120.50   226.50   249.50  RHO-points
      122   120.50   180.50   226.50   249.50  RHO-points
      123   180.50   240.50   226.50   249.50  RHO-points
      124   240.50   300.50   226.50   249.50  RHO-points
      125   300.50   360.50   226.50   249.50  RHO-points
      126   360.50   420.50   226.50   249.50  RHO-points
      127   420.50   480.50   226.50   249.50  RHO-points
      128   480.50   540.50   226.50   249.50  RHO-points
      129   540.50   600.50   226.50   249.50  RHO-points
      130   600.50   660.50   226.50   249.50  RHO-points
      131   660.50   720.50   226.50   249.50  RHO-points
      132     0.50    60.50   249.50   272.50  RHO-points
      133    60.50   120.50   249.50   272.50  RHO-points
      134   120.50   180.50   249.50   272.50  RHO-points
      135   180.50   240.50   249.50   272.50  RHO-points
      136   240.50   300.50   249.50   272.50  RHO-points
      137   300.50   360.50   249.50   272.50  RHO-points
      138   360.50   420.50   249.50   272.50  RHO-points
      139   420.50   480.50   249.50   272.50  RHO-points
      140   480.50   540.50   249.50   272.50  RHO-points
      141   540.50   600.50   249.50   272.50  RHO-points
      142   600.50   660.50   249.50   272.50  RHO-points
      143   660.50   720.50   249.50   272.50  RHO-points
      144     0.50    60.50   272.50   295.50  RHO-points
      145    60.50   120.50   272.50   295.50  RHO-points
      146   120.50   180.50   272.50   295.50  RHO-points
      147   180.50   240.50   272.50   295.50  RHO-points
      148   240.50   300.50   272.50   295.50  RHO-points
      149   300.50   360.50   272.50   295.50  RHO-points
      150   360.50   420.50   272.50   295.50  RHO-points
      151   420.50   480.50   272.50   295.50  RHO-points
      152   480.50   540.50   272.50   295.50  RHO-points
      153   540.50   600.50   272.50   295.50  RHO-points
      154   600.50   660.50   272.50   295.50  RHO-points
      155   660.50   720.50   272.50   295.50  RHO-points
      156     0.50    60.50   295.50   318.50  RHO-points
      157    60.50   120.50   295.50   318.50  RHO-points
      158   120.50   180.50   295.50   318.50  RHO-points
      159   180.50   240.50   295.50   318.50  RHO-points
      160   240.50   300.50   295.50   318.50  RHO-points
      161   300.50   360.50   295.50   318.50  RHO-points
      162   360.50   420.50   295.50   318.50  RHO-points
      163   420.50   480.50   295.50   318.50  RHO-points
      164   480.50   540.50   295.50   318.50  RHO-points
      165   540.50   600.50   295.50   318.50  RHO-points
      166   600.50   660.50   295.50   318.50  RHO-points
      167   660.50   720.50   295.50   318.50  RHO-points
      168     0.50    60.50   318.50   341.50  RHO-points
      169    60.50   120.50   318.50   341.50  RHO-points
      170   120.50   180.50   318.50   341.50  RHO-points
      171   180.50   240.50   318.50   341.50  RHO-points
      172   240.50   300.50   318.50   341.50  RHO-points
      173   300.50   360.50   318.50   341.50  RHO-points
      174   360.50   420.50   318.50   341.50  RHO-points
      175   420.50   480.50   318.50   341.50  RHO-points
      176   480.50   540.50   318.50   341.50  RHO-points
      177   540.50   600.50   318.50   341.50  RHO-points
      178   600.50   660.50   318.50   341.50  RHO-points
      179   660.50   720.50   318.50   341.50  RHO-points
      180     0.50    60.50   341.50   360.50  RHO-points
      181    60.50   120.50   341.50   360.50  RHO-points
      182   120.50   180.50   341.50   360.50  RHO-points
      183   180.50   240.50   341.50   360.50  RHO-points
      184   240.50   300.50   341.50   360.50  RHO-points
      185   300.50   360.50   341.50   360.50  RHO-points
      186   360.50   420.50   341.50   360.50  RHO-points
      187   420.50   480.50   341.50   360.50  RHO-points
      188   480.50   540.50   341.50   360.50  RHO-points
      189   540.50   600.50   341.50   360.50  RHO-points
      190   600.50   660.50   341.50   360.50  RHO-points
      191   660.50   720.50   341.50   360.50  RHO-points

        0     1.00    60.50     0.50    19.50    U-points
        1    60.50   120.50     0.50    19.50    U-points
        2   120.50   180.50     0.50    19.50    U-points
        3   180.50   240.50     0.50    19.50    U-points
        4   240.50   300.50     0.50    19.50    U-points
        5   300.50   360.50     0.50    19.50    U-points
        6   360.50   420.50     0.50    19.50    U-points
        7   420.50   480.50     0.50    19.50    U-points
        8   480.50   540.50     0.50    19.50    U-points
        9   540.50   600.50     0.50    19.50    U-points
       10   600.50   660.50     0.50    19.50    U-points
       11   660.50   720.00     0.50    19.50    U-points
       12     1.00    60.50    19.50    42.50    U-points
       13    60.50   120.50    19.50    42.50    U-points
       14   120.50   180.50    19.50    42.50    U-points
       15   180.50   240.50    19.50    42.50    U-points
       16   240.50   300.50    19.50    42.50    U-points
       17   300.50   360.50    19.50    42.50    U-points
       18   360.50   420.50    19.50    42.50    U-points
       19   420.50   480.50    19.50    42.50    U-points
       20   480.50   540.50    19.50    42.50    U-points
       21   540.50   600.50    19.50    42.50    U-points
       22   600.50   660.50    19.50    42.50    U-points
       23   660.50   720.00    19.50    42.50    U-points
       24     1.00    60.50    42.50    65.50    U-points
       25    60.50   120.50    42.50    65.50    U-points
       26   120.50   180.50    42.50    65.50    U-points
       27   180.50   240.50    42.50    65.50    U-points
       28   240.50   300.50    42.50    65.50    U-points
       29   300.50   360.50    42.50    65.50    U-points
       30   360.50   420.50    42.50    65.50    U-points
       31   420.50   480.50    42.50    65.50    U-points
       32   480.50   540.50    42.50    65.50    U-points
       33   540.50   600.50    42.50    65.50    U-points
       34   600.50   660.50    42.50    65.50    U-points
       35   660.50   720.00    42.50    65.50    U-points
       36     1.00    60.50    65.50    88.50    U-points
       37    60.50   120.50    65.50    88.50    U-points
       38   120.50   180.50    65.50    88.50    U-points
       39   180.50   240.50    65.50    88.50    U-points
       40   240.50   300.50    65.50    88.50    U-points
       41   300.50   360.50    65.50    88.50    U-points
       42   360.50   420.50    65.50    88.50    U-points
       43   420.50   480.50    65.50    88.50    U-points
       44   480.50   540.50    65.50    88.50    U-points
       45   540.50   600.50    65.50    88.50    U-points
       46   600.50   660.50    65.50    88.50    U-points
       47   660.50   720.00    65.50    88.50    U-points
       48     1.00    60.50    88.50   111.50    U-points
       49    60.50   120.50    88.50   111.50    U-points
       50   120.50   180.50    88.50   111.50    U-points
       51   180.50   240.50    88.50   111.50    U-points
       52   240.50   300.50    88.50   111.50    U-points
       53   300.50   360.50    88.50   111.50    U-points
       54   360.50   420.50    88.50   111.50    U-points
       55   420.50   480.50    88.50   111.50    U-points
       56   480.50   540.50    88.50   111.50    U-points
       57   540.50   600.50    88.50   111.50    U-points
       58   600.50   660.50    88.50   111.50    U-points
       59   660.50   720.00    88.50   111.50    U-points
       60     1.00    60.50   111.50   134.50    U-points
       61    60.50   120.50   111.50   134.50    U-points
       62   120.50   180.50   111.50   134.50    U-points
       63   180.50   240.50   111.50   134.50    U-points
       64   240.50   300.50   111.50   134.50    U-points
       65   300.50   360.50   111.50   134.50    U-points
       66   360.50   420.50   111.50   134.50    U-points
       67   420.50   480.50   111.50   134.50    U-points
       68   480.50   540.50   111.50   134.50    U-points
       69   540.50   600.50   111.50   134.50    U-points
       70   600.50   660.50   111.50   134.50    U-points
       71   660.50   720.00   111.50   134.50    U-points
       72     1.00    60.50   134.50   157.50    U-points
       73    60.50   120.50   134.50   157.50    U-points
       74   120.50   180.50   134.50   157.50    U-points
       75   180.50   240.50   134.50   157.50    U-points
       76   240.50   300.50   134.50   157.50    U-points
       77   300.50   360.50   134.50   157.50    U-points
       78   360.50   420.50   134.50   157.50    U-points
       79   420.50   480.50   134.50   157.50    U-points
       80   480.50   540.50   134.50   157.50    U-points
       81   540.50   600.50   134.50   157.50    U-points
       82   600.50   660.50   134.50   157.50    U-points
       83   660.50   720.00   134.50   157.50    U-points
       84     1.00    60.50   157.50   180.50    U-points
       85    60.50   120.50   157.50   180.50    U-points
       86   120.50   180.50   157.50   180.50    U-points
       87   180.50   240.50   157.50   180.50    U-points
       88   240.50   300.50   157.50   180.50    U-points
       89   300.50   360.50   157.50   180.50    U-points
       90   360.50   420.50   157.50   180.50    U-points
       91   420.50   480.50   157.50   180.50    U-points
       92   480.50   540.50   157.50   180.50    U-points
       93   540.50   600.50   157.50   180.50    U-points
       94   600.50   660.50   157.50   180.50    U-points
       95   660.50   720.00   157.50   180.50    U-points
       96     1.00    60.50   180.50   203.50    U-points
       97    60.50   120.50   180.50   203.50    U-points
       98   120.50   180.50   180.50   203.50    U-points
       99   180.50   240.50   180.50   203.50    U-points
      100   240.50   300.50   180.50   203.50    U-points
      101   300.50   360.50   180.50   203.50    U-points
      102   360.50   420.50   180.50   203.50    U-points
      103   420.50   480.50   180.50   203.50    U-points
      104   480.50   540.50   180.50   203.50    U-points
      105   540.50   600.50   180.50   203.50    U-points
      106   600.50   660.50   180.50   203.50    U-points
      107   660.50   720.00   180.50   203.50    U-points
      108     1.00    60.50   203.50   226.50    U-points
      109    60.50   120.50   203.50   226.50    U-points
      110   120.50   180.50   203.50   226.50    U-points
      111   180.50   240.50   203.50   226.50    U-points
      112   240.50   300.50   203.50   226.50    U-points
      113   300.50   360.50   203.50   226.50    U-points
      114   360.50   420.50   203.50   226.50    U-points
      115   420.50   480.50   203.50   226.50    U-points
      116   480.50   540.50   203.50   226.50    U-points
      117   540.50   600.50   203.50   226.50    U-points
      118   600.50   660.50   203.50   226.50    U-points
      119   660.50   720.00   203.50   226.50    U-points
      120     1.00    60.50   226.50   249.50    U-points
      121    60.50   120.50   226.50   249.50    U-points
      122   120.50   180.50   226.50   249.50    U-points
      123   180.50   240.50   226.50   249.50    U-points
      124   240.50   300.50   226.50   249.50    U-points
      125   300.50   360.50   226.50   249.50    U-points
      126   360.50   420.50   226.50   249.50    U-points
      127   420.50   480.50   226.50   249.50    U-points
      128   480.50   540.50   226.50   249.50    U-points
      129   540.50   600.50   226.50   249.50    U-points
      130   600.50   660.50   226.50   249.50    U-points
      131   660.50   720.00   226.50   249.50    U-points
      132     1.00    60.50   249.50   272.50    U-points
      133    60.50   120.50   249.50   272.50    U-points
      134   120.50   180.50   249.50   272.50    U-points
      135   180.50   240.50   249.50   272.50    U-points
      136   240.50   300.50   249.50   272.50    U-points
      137   300.50   360.50   249.50   272.50    U-points
      138   360.50   420.50   249.50   272.50    U-points
      139   420.50   480.50   249.50   272.50    U-points
      140   480.50   540.50   249.50   272.50    U-points
      141   540.50   600.50   249.50   272.50    U-points
      142   600.50   660.50   249.50   272.50    U-points
      143   660.50   720.00   249.50   272.50    U-points
      144     1.00    60.50   272.50   295.50    U-points
      145    60.50   120.50   272.50   295.50    U-points
      146   120.50   180.50   272.50   295.50    U-points
      147   180.50   240.50   272.50   295.50    U-points
      148   240.50   300.50   272.50   295.50    U-points
      149   300.50   360.50   272.50   295.50    U-points
      150   360.50   420.50   272.50   295.50    U-points
      151   420.50   480.50   272.50   295.50    U-points
      152   480.50   540.50   272.50   295.50    U-points
      153   540.50   600.50   272.50   295.50    U-points
      154   600.50   660.50   272.50   295.50    U-points
      155   660.50   720.00   272.50   295.50    U-points
      156     1.00    60.50   295.50   318.50    U-points
      157    60.50   120.50   295.50   318.50    U-points
      158   120.50   180.50   295.50   318.50    U-points
      159   180.50   240.50   295.50   318.50    U-points
      160   240.50   300.50   295.50   318.50    U-points
      161   300.50   360.50   295.50   318.50    U-points
      162   360.50   420.50   295.50   318.50    U-points
      163   420.50   480.50   295.50   318.50    U-points
      164   480.50   540.50   295.50   318.50    U-points
      165   540.50   600.50   295.50   318.50    U-points
      166   600.50   660.50   295.50   318.50    U-points
      167   660.50   720.00   295.50   318.50    U-points
      168     1.00    60.50   318.50   341.50    U-points
      169    60.50   120.50   318.50   341.50    U-points
      170   120.50   180.50   318.50   341.50    U-points
      171   180.50   240.50   318.50   341.50    U-points
      172   240.50   300.50   318.50   341.50    U-points
      173   300.50   360.50   318.50   341.50    U-points
      174   360.50   420.50   318.50   341.50    U-points
      175   420.50   480.50   318.50   341.50    U-points
      176   480.50   540.50   318.50   341.50    U-points
      177   540.50   600.50   318.50   341.50    U-points
      178   600.50   660.50   318.50   341.50    U-points
      179   660.50   720.00   318.50   341.50    U-points
      180     1.00    60.50   341.50   360.50    U-points
      181    60.50   120.50   341.50   360.50    U-points
      182   120.50   180.50   341.50   360.50    U-points
      183   180.50   240.50   341.50   360.50    U-points
      184   240.50   300.50   341.50   360.50    U-points
      185   300.50   360.50   341.50   360.50    U-points
      186   360.50   420.50   341.50   360.50    U-points
      187   420.50   480.50   341.50   360.50    U-points
      188   480.50   540.50   341.50   360.50    U-points
      189   540.50   600.50   341.50   360.50    U-points
      190   600.50   660.50   341.50   360.50    U-points
      191   660.50   720.00   341.50   360.50    U-points

        0     0.50    60.50     1.00    19.50    V-points
        1    60.50   120.50     1.00    19.50    V-points
        2   120.50   180.50     1.00    19.50    V-points
        3   180.50   240.50     1.00    19.50    V-points
        4   240.50   300.50     1.00    19.50    V-points
        5   300.50   360.50     1.00    19.50    V-points
        6   360.50   420.50     1.00    19.50    V-points
        7   420.50   480.50     1.00    19.50    V-points
        8   480.50   540.50     1.00    19.50    V-points
        9   540.50   600.50     1.00    19.50    V-points
       10   600.50   660.50     1.00    19.50    V-points
       11   660.50   720.50     1.00    19.50    V-points
       12     0.50    60.50    19.50    42.50    V-points
       13    60.50   120.50    19.50    42.50    V-points
       14   120.50   180.50    19.50    42.50    V-points
       15   180.50   240.50    19.50    42.50    V-points
       16   240.50   300.50    19.50    42.50    V-points
       17   300.50   360.50    19.50    42.50    V-points
       18   360.50   420.50    19.50    42.50    V-points
       19   420.50   480.50    19.50    42.50    V-points
       20   480.50   540.50    19.50    42.50    V-points
       21   540.50   600.50    19.50    42.50    V-points
       22   600.50   660.50    19.50    42.50    V-points
       23   660.50   720.50    19.50    42.50    V-points
       24     0.50    60.50    42.50    65.50    V-points
       25    60.50   120.50    42.50    65.50    V-points
       26   120.50   180.50    42.50    65.50    V-points
       27   180.50   240.50    42.50    65.50    V-points
       28   240.50   300.50    42.50    65.50    V-points
       29   300.50   360.50    42.50    65.50    V-points
       30   360.50   420.50    42.50    65.50    V-points
       31   420.50   480.50    42.50    65.50    V-points
       32   480.50   540.50    42.50    65.50    V-points
       33   540.50   600.50    42.50    65.50    V-points
       34   600.50   660.50    42.50    65.50    V-points
       35   660.50   720.50    42.50    65.50    V-points
       36     0.50    60.50    65.50    88.50    V-points
       37    60.50   120.50    65.50    88.50    V-points
       38   120.50   180.50    65.50    88.50    V-points
       39   180.50   240.50    65.50    88.50    V-points
       40   240.50   300.50    65.50    88.50    V-points
       41   300.50   360.50    65.50    88.50    V-points
       42   360.50   420.50    65.50    88.50    V-points
       43   420.50   480.50    65.50    88.50    V-points
       44   480.50   540.50    65.50    88.50    V-points
       45   540.50   600.50    65.50    88.50    V-points
       46   600.50   660.50    65.50    88.50    V-points
       47   660.50   720.50    65.50    88.50    V-points
       48     0.50    60.50    88.50   111.50    V-points
       49    60.50   120.50    88.50   111.50    V-points
       50   120.50   180.50    88.50   111.50    V-points
       51   180.50   240.50    88.50   111.50    V-points
       52   240.50   300.50    88.50   111.50    V-points
       53   300.50   360.50    88.50   111.50    V-points
       54   360.50   420.50    88.50   111.50    V-points
       55   420.50   480.50    88.50   111.50    V-points
       56   480.50   540.50    88.50   111.50    V-points
       57   540.50   600.50    88.50   111.50    V-points
       58   600.50   660.50    88.50   111.50    V-points
       59   660.50   720.50    88.50   111.50    V-points
       60     0.50    60.50   111.50   134.50    V-points
       61    60.50   120.50   111.50   134.50    V-points
       62   120.50   180.50   111.50   134.50    V-points
       63   180.50   240.50   111.50   134.50    V-points
       64   240.50   300.50   111.50   134.50    V-points
       65   300.50   360.50   111.50   134.50    V-points
       66   360.50   420.50   111.50   134.50    V-points
       67   420.50   480.50   111.50   134.50    V-points
       68   480.50   540.50   111.50   134.50    V-points
       69   540.50   600.50   111.50   134.50    V-points
       70   600.50   660.50   111.50   134.50    V-points
       71   660.50   720.50   111.50   134.50    V-points
       72     0.50    60.50   134.50   157.50    V-points
       73    60.50   120.50   134.50   157.50    V-points
       74   120.50   180.50   134.50   157.50    V-points
       75   180.50   240.50   134.50   157.50    V-points
       76   240.50   300.50   134.50   157.50    V-points
       77   300.50   360.50   134.50   157.50    V-points
       78   360.50   420.50   134.50   157.50    V-points
       79   420.50   480.50   134.50   157.50    V-points
       80   480.50   540.50   134.50   157.50    V-points
       81   540.50   600.50   134.50   157.50    V-points
       82   600.50   660.50   134.50   157.50    V-points
       83   660.50   720.50   134.50   157.50    V-points
       84     0.50    60.50   157.50   180.50    V-points
       85    60.50   120.50   157.50   180.50    V-points
       86   120.50   180.50   157.50   180.50    V-points
       87   180.50   240.50   157.50   180.50    V-points
       88   240.50   300.50   157.50   180.50    V-points
       89   300.50   360.50   157.50   180.50    V-points
       90   360.50   420.50   157.50   180.50    V-points
       91   420.50   480.50   157.50   180.50    V-points
       92   480.50   540.50   157.50   180.50    V-points
       93   540.50   600.50   157.50   180.50    V-points
       94   600.50   660.50   157.50   180.50    V-points
       95   660.50   720.50   157.50   180.50    V-points
       96     0.50    60.50   180.50   203.50    V-points
       97    60.50   120.50   180.50   203.50    V-points
       98   120.50   180.50   180.50   203.50    V-points
       99   180.50   240.50   180.50   203.50    V-points
      100   240.50   300.50   180.50   203.50    V-points
      101   300.50   360.50   180.50   203.50    V-points
      102   360.50   420.50   180.50   203.50    V-points
      103   420.50   480.50   180.50   203.50    V-points
      104   480.50   540.50   180.50   203.50    V-points
      105   540.50   600.50   180.50   203.50    V-points
      106   600.50   660.50   180.50   203.50    V-points
      107   660.50   720.50   180.50   203.50    V-points
      108     0.50    60.50   203.50   226.50    V-points
      109    60.50   120.50   203.50   226.50    V-points
      110   120.50   180.50   203.50   226.50    V-points
      111   180.50   240.50   203.50   226.50    V-points
      112   240.50   300.50   203.50   226.50    V-points
      113   300.50   360.50   203.50   226.50    V-points
      114   360.50   420.50   203.50   226.50    V-points
      115   420.50   480.50   203.50   226.50    V-points
      116   480.50   540.50   203.50   226.50    V-points
      117   540.50   600.50   203.50   226.50    V-points
      118   600.50   660.50   203.50   226.50    V-points
      119   660.50   720.50   203.50   226.50    V-points
      120     0.50    60.50   226.50   249.50    V-points
      121    60.50   120.50   226.50   249.50    V-points
      122   120.50   180.50   226.50   249.50    V-points
      123   180.50   240.50   226.50   249.50    V-points
      124   240.50   300.50   226.50   249.50    V-points
      125   300.50   360.50   226.50   249.50    V-points
      126   360.50   420.50   226.50   249.50    V-points
      127   420.50   480.50   226.50   249.50    V-points
      128   480.50   540.50   226.50   249.50    V-points
      129   540.50   600.50   226.50   249.50    V-points
      130   600.50   660.50   226.50   249.50    V-points
      131   660.50   720.50   226.50   249.50    V-points
      132     0.50    60.50   249.50   272.50    V-points
      133    60.50   120.50   249.50   272.50    V-points
      134   120.50   180.50   249.50   272.50    V-points
      135   180.50   240.50   249.50   272.50    V-points
      136   240.50   300.50   249.50   272.50    V-points
      137   300.50   360.50   249.50   272.50    V-points
      138   360.50   420.50   249.50   272.50    V-points
      139   420.50   480.50   249.50   272.50    V-points
      140   480.50   540.50   249.50   272.50    V-points
      141   540.50   600.50   249.50   272.50    V-points
      142   600.50   660.50   249.50   272.50    V-points
      143   660.50   720.50   249.50   272.50    V-points
      144     0.50    60.50   272.50   295.50    V-points
      145    60.50   120.50   272.50   295.50    V-points
      146   120.50   180.50   272.50   295.50    V-points
      147   180.50   240.50   272.50   295.50    V-points
      148   240.50   300.50   272.50   295.50    V-points
      149   300.50   360.50   272.50   295.50    V-points
      150   360.50   420.50   272.50   295.50    V-points
      151   420.50   480.50   272.50   295.50    V-points
      152   480.50   540.50   272.50   295.50    V-points
      153   540.50   600.50   272.50   295.50    V-points
      154   600.50   660.50   272.50   295.50    V-points
      155   660.50   720.50   272.50   295.50    V-points
      156     0.50    60.50   295.50   318.50    V-points
      157    60.50   120.50   295.50   318.50    V-points
      158   120.50   180.50   295.50   318.50    V-points
      159   180.50   240.50   295.50   318.50    V-points
      160   240.50   300.50   295.50   318.50    V-points
      161   300.50   360.50   295.50   318.50    V-points
      162   360.50   420.50   295.50   318.50    V-points
      163   420.50   480.50   295.50   318.50    V-points
      164   480.50   540.50   295.50   318.50    V-points
      165   540.50   600.50   295.50   318.50    V-points
      166   600.50   660.50   295.50   318.50    V-points
      167   660.50   720.50   295.50   318.50    V-points
      168     0.50    60.50   318.50   341.50    V-points
      169    60.50   120.50   318.50   341.50    V-points
      170   120.50   180.50   318.50   341.50    V-points
      171   180.50   240.50   318.50   341.50    V-points
      172   240.50   300.50   318.50   341.50    V-points
      173   300.50   360.50   318.50   341.50    V-points
      174   360.50   420.50   318.50   341.50    V-points
      175   420.50   480.50   318.50   341.50    V-points
      176   480.50   540.50   318.50   341.50    V-points
      177   540.50   600.50   318.50   341.50    V-points
      178   600.50   660.50   318.50   341.50    V-points
      179   660.50   720.50   318.50   341.50    V-points
      180     0.50    60.50   341.50   360.00    V-points
      181    60.50   120.50   341.50   360.00    V-points
      182   120.50   180.50   341.50   360.00    V-points
      183   180.50   240.50   341.50   360.00    V-points
      184   240.50   300.50   341.50   360.00    V-points
      185   300.50   360.50   341.50   360.00    V-points
      186   360.50   420.50   341.50   360.00    V-points
      187   420.50   480.50   341.50   360.00    V-points
      188   480.50   540.50   341.50   360.00    V-points
      189   540.50   600.50   341.50   360.00    V-points
      190   600.50   660.50   341.50   360.00    V-points
      191   660.50   720.50   341.50   360.00    V-points

 Maximum halo size in XI and ETA directions:

               HaloSizeI(1) =     144
               HaloSizeJ(1) =      70
                TileSide(1) =      66
                TileSize(1) =    1914



 GFDL Cobalt Model Parameters, Grid: 01
 =================================

          1  BioIter         Number of iterations for nonlinear convergence.
 1.0000E-02  htotal_scale_lo htotal_scale_lo ?[N/A].
 1.0000E+02  htotal_scale_hi htotal_scale_hi ?[N/A].
 1.0350E+03  RHO_0           sea water density[N/A].
 2.0091E+00  a_0             a_0 : coefficients for O2 saturation[N/A].
 3.2201E+00  a_1             a_1 : coefficients for O2 saturation[N/A].
 4.0501E+00  a_2             a_2 : coefficients for O2 saturation[N/A].
 4.9446E+00  a_3             a_3 : coefficients for O2 saturation[N/A].
-2.5685E-01  a_4             a_4 : coefficients for O2 saturation[N/A].
 3.8877E+00  a_5             a_5 : coefficients for O2 saturation[N/A].
-6.2452E-03  b_0             b_0 : coefficients for O2 saturation[N/A].
-7.3761E-03  b_1             b_1 : coefficients for O2 saturation[N/A].
-1.0341E-02  b_2             b_2 : coefficients for O2 saturation[N/A].
-8.1708E-03  b_3             b_3 : coefficients for O2 saturation[N/A].
-4.8868E-07  c_0             c_0 : coefficients for O2 saturation[N/A].
 2.0689E+03  a1_co2          a1_co2 : Compute the Schmidt number of CO2 in                    seawater[N/A].
-1.1863E+02  a2_co2          a2_co2 : Compute the Schmidt number of CO2 in                    seawater[N/A].
 2.9311E+00  a3_co2          a3_co2 : Compute the Schmidt number of CO2 in                    seawater[N/A].
-2.7000E-02  a4_co2          a4_co2 : Compute the Schmidt number of CO2 in                    seawater[N/A].
 1.9297E+03  a1_o2           a1_o2 : Compute the Schmidt number of O2 in                      seawater[N/A].
-1.1746E+02  a2_o2           a2_o2 : Compute the Schmidt number of O2 in                      seawater[N/A].
 3.1160E+00  a3_o2           a3_o2 : Compute the Schmidt number of O2 in                      seawater[N/A].
-3.0600E-02  a4_o2           a4_o2 : Compute the Schmidt number of O2 in                      seawater[N/A].
 1.4866E+02  mass_2_n        mass_2_n: Stoichiometry[g mol N-1].
 5.9000E+00  n_2_n_denit     n_2_n_denit: Stoichiometry[mol N NO3 mol N org-1].
 1.4150E+00  o2_2_c          o2_2_c: Stoichiometry[mol O2 mol C-1].
 1.1838E+02  o2_2_nfix       o2_2_nfix: Stoichiometry[mol O2 mol N-1].
 7.3750E+00  o2_2_nh4        o2_2_nh4: Stoichiometry[mol O2 mol N-1].
 2.0000E+00  o2_2_nitrif     o2_2_nitrif: Stoichiometry[mol O2 mol N-1].
 9.3750E+00  o2_2_no3        o2_2_no3: Stoichiometry[mol O2 mol N-1].
 5.0000E-10  k_fed_Di        k_fed_Di: Nutrient Limitation Parameters                         (phytoplankton)[mol Fed kg-1].
 5.0000E-10  k_fed_Lg        k_fed_Lg: Nutrient Limitation Parameters                         (phytoplankton)[mol Fed kg-1].
 1.0000E-10  k_fed_Sm        k_fed_Sm: Nutrient Limitation Parameters                         (phytoplankton)[mol Fed kg-1].
 5.0000E-07  k_nh4_Lg        k_nh4_Lg: Nutrient Limitation Parameters                         (phytoplankton)[mol NH4 kg-1].
 1.0000E-07  k_nh4_Sm        k_nh4_Sm: Nutrient Limitation Parameters                         (phytoplankton)[mol NH4 kg-1].
 5.0000E-07  k_nh4_Di        k_nh4_Di: Nutrient Limitation Parameters                         (phytoplankton)[mol NH4 kg-1].
 2.5000E-06  k_no3_Lg        k_no3_Lg: Nutrient Limitation Parameters                         (phytoplankton)[mol NO3 kg-1].
 5.0000E-07  k_no3_Sm        k_no3_Sm: Nutrient Limitation Parameters                         (phytoplankton) [mol NO3 kg-1].
 2.5000E-06  k_no3_Di        k_no3_Di: Nutrient Limitation Parameters                         (phytoplankton) [mol NO3 kg-1].
 5.0000E-08  k_po4_Di        k_po4_Di: Nutrient Limitation Parameters                         (phytoplankton) [mol PO4 kg-1].
 5.0000E-08  k_po4_Lg        k_po4_Lg: Nutrient Limitation Parameters                         (phytoplankton) [mol PO4 kg-1].
 1.0000E-08  k_po4_Sm        k_po4_Sm: Nutrient Limitation Parameters                         (phytoplankton) [mol PO4 kg-1].
 2.0000E-06  k_sio4_Lg       k_sio4_Lg: Nutrient Limitation Parameters                        (phytoplankton) [mol SiO4 kg-1].
 1.6563E-04  k_fe_2_n_Di     k_fe_2_n_Di: Nutrient Limitation Parameters                      (phytoplankton) [mol Fe mol N-1].
 3.9750E-05  k_fe_2_n_Lg     k_fe_2_n_Lg: Nutrient Limitation Parameters (phytoplankton) [mol Fe mol N-1].
 1.9875E-05  k_fe_2_n_Sm     k_fe_2_n_Sm: Nutrient Limitation Parameters (phytoplankton) [mol Fe mol N-1].
 3.3125E-04  fe_2_n_max_Sm   fe_2_n_max_Sm: Nutrient Limitation Parameters (phytoplankton)[mol Fe mol N-1].
 3.3125E-03  fe_2_n_max_Lg   fe_2_n_max_Lg: Nutrient Limitation Parameters (phytoplankton)[mol Fe mol N-1].
 3.3125E-03  fe_2_n_max_Di   fe_2_n_max_Di: Nutrient Limitation Parameters (phytoplankton)[mol Fe mol N-1].
 1.5000E-05  fe_2_n_upt_fac  fe_2_n_upt_fac: Nutrient Limitation Parameters (phytoplankton)[mol Fe mol N-1].
 4.6000E-05  alpha_Di        alpha_Di: Phytoplankton light limitation/growth rate[g C g Chl-1 m2 W-1 s-1].
 4.6000E-05  alpha_Lg        alpha_Lg: Phytoplankton light limitation/growth rate[g C g Chl-1 m2 W-1 s-1].
 9.2000E-05  alpha_Sm        alpha_Sm: Phytoplankton light limitation/growth rate[g C g Chl-1 m2 W-1 s-1].
 6.3000E-02  kappa_eppley    kappa_eppley: Phytoplankton light limitation/growth rate[deg C-1].
 0.0000E+00  P_C_max_Di      P_C_max_Di: Phytoplankton light limitation/growth rate[s-1].
 1.3021E-05  P_C_max_Lg      P_C_max_Lg: Phytoplankton light limitation/growth rate[s-1].
 1.3020E-05  P_C_max_Sm      P_C_max_Sm: Phytoplankton light limitation/growth rate[s-1].
 3.0000E-02  thetamax_Di     thetamax_Di: Phytoplankton light limitation/growth rate[g Chl g C-1].
 5.0000E-02  thetamax_Lg     thetamax_Lg: Phytoplankton light limitation/growth rate[g Chl g C-1].
 3.0000E-02  thetamax_Sm     thetamax_Sm: Phytoplankton light limitation/growth rate[g Chl g C-1].
 2.8940E-07  bresp_Di        bresp_Di: Phytoplankton light limitation/growth rate[sec-1].
 2.8935E-07  bresp_Lg        bresp_Lg: Phytoplankton light limitation/growth rate[sec-1].
 2.6040E-07  bresp_Sm        bresp_Sm: Phytoplankton light limitation/growth rate[sec-1].
 2.0000E-03  thetamin        thetamin: Phytoplankton light limitation/growth rate[g Chl g C-1].
 0.0000E+00  thetamin_nolim  thetamin_nolim: Phytoplankton light limitation/growth rate[g Chl g C-1].
 5.0000E-02  zpllgr          zpllgr: Phytoplankton light limitation/growth rate[dimensionless].
 1.1574E-05  gamma_irr_mem   gamma_irr_mem: Phytoplankton light limitation/growth rate[s-1].
 1.1574E-05  gamma_mu_mem    gamma_mu_mem: Phytoplankton aggregation rate[s-1].
 1.0000E-06  k_n_inhib_Di    k_n_inhib_Di: Nitrogen fixation inhibition parameters[mol NO3 kg-1].
 4.0000E+00  o2_inhib_Di_pow o2_inhib_Di_pow: Nitrogen fixation inhibition parameters[mol O2-1 m3].
 3.0000E-04  o2_inhib_Di_sat o2_inhib_Di_sat: Nitrogen fixation inhibition parameters[mol O2 kg-1].
 6.6250E+00  c_2_n           c_2_n: Other stoichiometry[N/A].
 1.1695E+00  alk_2_n_denit   alk_2_n_denit: Other stoichiometry[eq. alk mol NO3-1].
 2.5000E-02  p_2_n_static_Di p_2_n_static_Di: Other stoichiometry[mol P mol N-1].
 6.2500E-02  p_2_n_static_Lg p_2_n_static_Lg: Other stoichiometry[mol P mol N-1].
 6.2500E-02  p_2_n_static_Sm p_2_n_static_Sm: Other stoichiometry[mol P mol N-1].
 2.0000E+00  si_2_n_static_Lgsi_2_n_static_Lg: Other stoichiometry[mol Si mol N-1].
 5.0000E+00  si_2_n_max_Lg   si_2_n_max_Lg: Other stoichiometry[mol Si mol N-1].
 1.3250E-01  ca_2_n_arag     ca_2_n_arag: Other stoichiometry[mol Ca mol N-1].
 6.6250E-02  ca_2_n_calc     ca_2_n_calc: Other stoichiometry[mol Ca mol N-1].
 1.0000E+01  caco3_sat_max   caco3_sat_max: Other stoichiometry[dimensionless].
 6.2500E-02  q_p_2_n_smz     q_p_2_n_smz: Zooplankton Stoichiometry - presently static[mol P mol N-1].
 6.2500E-02  q_p_2_n_mdz     q_p_2_n_mdz: Zooplankton Stoichiometry - presently static[mol P mol N-1].
 6.2500E-02  q_p_2_n_lgz     q_p_2_n_lgz: Zooplankton Stoichiometry - presently static[mol P mol N-1].
 6.2500E-02  q_p_2_n_bact    q_p_2_n_bact: Bacteria Stoichiometry - presently static[mol P mol N-1].
 1.1574E+00  agg_Sm          agg_Sm: Phytoplankton aggregation[s-1 (mole N kg)-1].
 0.0000E+00  agg_Di          agg_Di: Phytoplankton aggregation[s-1 (mole N kg)-1].
 3.4722E+00  agg_Lg          agg_Lg: Phytoplankton aggregation[s-1 (mole N kg)-1].
 2.8940E-01  vir_Sm          vir_Sm: Phytoplankton and bacterial losses to viruses[s-1 (mole N kg)-1].
 0.0000E+00  vir_Di          vir_Di: Phytoplankton and bacterial losses to viruses[s-1 (mole N kg)-1].
 0.0000E+00  vir_Lg          vir_Lg: Phytoplankton and bacterial losses to viruses[s-1 (mole N kg)-1].
 3.8194E-01  vir_Bact        vir_Bact: Phytoplankton and bacterial losses to viruses[s-1 (mole N kg)-1].
 6.3000E-02  ktemp_vir       ktemp_vir: Phytoplankton and bacterial losses to viruses[C-1].
 1.3000E-01  exu_Sm          exu_Sm: Phytoplankton losses to exudation[dimensionless (fraction of NPP)].
 1.3000E-01  exu_Di          exu_Di: Phytoplankton losses to exudation[dimensionless (fraction of NPP)].
 1.3000E-01  exu_Lg          exu_Lg: Phytoplankton losses to exudation[dimensionless (fraction of NPP)].
 1.6435E-05  imax_smz        imax_smz: Zooplankton ingestion parameterization and temperature dependence[s-1].
 6.5972E-06  imax_mdz        imax_mdz: Zooplankton ingestion parameterization and temperature dependence[s-1].
 2.6620E-06  imax_lgz        imax_lgz: Zooplankton ingestion parameterization and temperature dependence[s-1].
 1.2500E-06  ki_smz          ki_smz: Zooplankton ingestion parameterization and temperature dependence[moles N kg-1].
 1.2500E-06  ki_mdz          ki_mdz: Zooplankton ingestion parameterization and temperature dependence[moles N kg-1].
 1.2500E-06  ki_lgz          ki_lgz: Zooplankton ingestion parameterization and temperature dependence[moles N kg-1].
 6.3000E-02  ktemp_smz       ktemp_smz: Zooplankton ingestion parameterization and temperature dependence[C-1].
 6.3000E-02  ktemp_mdz       ktemp_mdz: Zooplankton ingestion parameterization and temperature dependence[C-1].
 6.3000E-02  ktemp_lgz       ktemp_lgz: Zooplankton ingestion parameterization and temperature dependence[C-1].
 1.1574E-05  mu_max_bact     mu_max_bact: Bacterial growth and uptake parameters[s-1].
 5.0000E-07  k_ldon_bact     k_ldon_bact: Bacterial growth and uptake parameters[mol ldon kg-1].
 6.3000E-02  ktemp_bact      ktemp_bact: Bacterial growth and uptake parameters[C-1].
 2.0000E+00  nswitch_smz     nswitch_smz: Zooplankton switching and prey preference parameters[dimensionless].
 2.0000E+00  nswitch_mdz     nswitch_mdz: Zooplankton switching and prey preference parameters[dimensionless].
 2.0000E+00  nswitch_lgz     nswitch_lgz: Zooplankton switching and prey preference parameters[dimensionless].
 2.0000E+00  mswitch_smz     mswitch_smz: Zooplankton switching and prey preference parameters[dimensionless].
 2.0000E+00  mswitch_mdz     mswitch_mdz: Zooplankton switching and prey preference parameters[dimensionless].
 2.0000E+00  mswitch_lgz     mswitch_lgz: Zooplankton switching and prey preference parameters[dimensionless].
 1.0000E+00  smz_ipa_smp     smz_ipa_smp: Zooplankton switching and prey preference parameters[dimensionless].
 0.0000E+00  smz_ipa_lgp     smz_ipa_lgp: Zooplankton switching and prey preference parameters[dimensionless].
 0.0000E+00  smz_ipa_diaz    smz_ipa_diaz: Zooplankton switching and prey preference parameters[dimensionless].
 0.0000E+00  smz_ipa_smz     smz_ipa_smz: Zooplankton switching and prey preference parameters[dimensionless].
 0.0000E+00  smz_ipa_mdz     smz_ipa_mdz: Zooplankton switching and prey preference parameters[dimensionless].
 0.0000E+00  smz_ipa_lgz     smz_ipa_lgz: Zooplankton switching and prey preference parameters[dimensionless].
 2.5000E-01  smz_ipa_bact    smz_ipa_bact: Zooplankton switching and prey preference parameters[dimensionless].
 0.0000E+00  smz_ipa_det     smz_ipa_det: Zooplankton switching and prey preference parameters[dimensionless].
 0.0000E+00  mdz_ipa_smp     mdz_ipa_smp: Zooplankton switching and prey preference parameters[dimensionless].
 1.0000E+00  mdz_ipa_lgp     mdz_ipa_lgp: Zooplankton switching and prey preference parameters[dimensionless].
 1.0000E+00  mdz_ipa_diaz    mdz_ipa_diaz: Zooplankton switching and prey preference parameters[dimensionless].
 1.0000E+00  mdz_ipa_smz     mdz_ipa_smz: Zooplankton switching and prey preference parameters[dimensionless].
 0.0000E+00  mdz_ipa_mdz     mdz_ipa_mdz: Zooplankton switching and prey preference parameters[dimensionless].
 0.0000E+00  mdz_ipa_lgz     mdz_ipa_lgz: Zooplankton switching and prey preference parameters[dimensionless].
 0.0000E+00  mdz_ipa_bact    mdz_ipa_bact: Zooplankton switching and prey preference parameters[dimensionless].
 0.0000E+00  mdz_ipa_det     mdz_ipa_det: Zooplankton switching and prey preference parameters[dimensionless].
 0.0000E+00  lgz_ipa_smp     lgz_ipa_smp: Zooplankton switching and prey preference parameters[dimensionless].
 1.0000E+00  lgz_ipa_lgp     lgz_ipa_lgp: Zooplankton switching and prey preference parameters[dimensionless].
 1.0000E+00  lgz_ipa_diaz    lgz_ipa_diaz: Zooplankton switching and prey preference parameters[dimensionless].
 0.0000E+00  lgz_ipa_smz     lgz_ipa_smz: Zooplankton switching and prey preference parameters[dimensionless].
 1.0000E+00  lgz_ipa_mdz     lgz_ipa_mdz: Zooplankton switching and prey preference parameters[dimensionless].
 0.0000E+00  lgz_ipa_lgz     lgz_ipa_lgz: Zooplankton switching and prey preference parameters[dimensionless].
 0.0000E+00  lgz_ipa_bact    lgz_ipa_bact: Zooplankton switching and prey preference parameters[dimensionless].
 0.0000E+00  lgz_ipa_det     lgz_ipa_det: Zooplankton switching and prey preference parameters[dimensionless].
 4.0000E-01  gge_max_smz     gge_max_smz: Zooplankton bioenergetics[dimensionless].
 4.0000E-01  gge_max_mdz     gge_max_mdz: Zooplankton bioenergetics[dimensionless].
 4.0000E-01  gge_max_lgz     gge_max_lgz: Zooplankton bioenergetics[dimensionless].
 2.3148E-07  bresp_smz       bresp_smz: Zooplankton bioenergetics[s-1].
 9.2593E-08  bresp_mdz       bresp_mdz: Zooplankton bioenergetics[s-1].
 3.7037E-08  bresp_lgz       bresp_lgz: Zooplankton bioenergetics[s-1].
 4.0000E-01  gge_max_bact    gge_max_bact: Bacterial bioenergetics[dimensionless].
 8.6806E-08  bresp_bact      bresp_bact: Bacterial bioenergetics[s-1].
 0.0000E+00  phi_det_smz     phi_det_smz: Partitioning of zooplankton ingestion to other compartments[dimensionless].
 2.0000E-01  phi_det_mdz     phi_det_mdz: Partitioning of zooplankton ingestion to other compartments[dimensionless].
 3.0000E-01  phi_det_lgz     phi_det_lgz: Partitioning of zooplankton ingestion to other compartments[dimensionless].
 1.6500E-01  phi_ldon_smz    phi_ldon_smz: Partitioning of zooplankton ingestion to other compartments[dimensionless].
 5.5000E-02  phi_ldon_mdz    phi_ldon_mdz: Partitioning of zooplankton ingestion to other compartments[dimensionless].
 0.0000E+00  phi_ldon_lgz    phi_ldon_lgz: Partitioning of zooplankton ingestion to other compartments[dimensionless].
 1.3500E-01  phi_ldop_smz    phi_ldop_smz: Partitioning of zooplankton ingestion to other compartments[dimensionless].
 4.5000E-02  phi_ldop_mdz    phi_ldop_mdz: Partitioning of zooplankton ingestion to other compartments[dimensionless].
 0.0000E+00  phi_ldop_lgz    phi_ldop_lgz: Partitioning of zooplankton ingestion to other compartments[dimensionless].
 1.5000E-02  phi_srdon_smz   phi_srdon_smz: Partitioning of zooplankton ingestion to other compartments[dimensionless].
 5.0000E-03  phi_srdon_mdz   phi_srdon_mdz: Partitioning of zooplankton ingestion to other compartments[dimensionless].
 0.0000E+00  phi_srdon_lgz   phi_srdon_lgz: Partitioning of zooplankton ingestion to other compartments[dimensionless].
 4.5000E-02  phi_srdop_smz   phi_srdop_smz: Partitioning of zooplankton ingestion to other compartments[dimensionless].
 1.5000E-02  phi_srdop_mdz   phi_srdop_mdz: Partitioning of zooplankton ingestion to other compartments[dimensionless].
 0.0000E+00  phi_srdop_lgz   phi_srdop_lgz: Partitioning of zooplankton ingestion to other compartments[dimensionless].
 1.2000E-01  phi_sldon_smz   phi_sldon_smz: Partitioning of zooplankton ingestion to other compartments[dimensionless].
 4.0000E-02  phi_sldon_mdz   phi_sldon_mdz: Partitioning of zooplankton ingestion to other compartments[dimensionless].
 0.0000E+00  phi_sldon_lgz   phi_sldon_lgz: Partitioning of zooplankton ingestion to other compartments[dimensionless].
 1.2000E-01  phi_sldop_smz   phi_sldop_smz: Partitioning of zooplankton ingestion to other compartments[dimensionless].
 4.0000E-02  phi_sldop_mdz   phi_sldop_mdz: Partitioning of zooplankton ingestion to other compartments[dimensionless].
 0.0000E+00  phi_sldop_lgz   phi_sldop_lgz: Partitioning of zooplankton ingestion to other compartments[dimensionless].
 3.0000E-01  phi_nh4_smz     phi_nh4_smz: Partitioning of zooplankton ingestion to other compartments[dimensionless].
 3.0000E-01  phi_nh4_mdz     phi_nh4_mdz: Partitioning of zooplankton ingestion to other compartments[dimensionless].
 3.0000E-01  phi_nh4_lgz     phi_nh4_lgz: Partitioning of zooplankton ingestion to other compartments[dimensionless].
 3.0000E-01  phi_po4_smz     phi_po4_smz: Partitioning of zooplankton ingestion to other compartments[dimensionless].
 3.0000E-01  phi_po4_mdz     phi_po4_mdz: Partitioning of zooplankton ingestion to other compartments[dimensionless].
 3.0000E-01  phi_po4_lgz     phi_po4_lgz: Partitioning of zooplankton ingestion to other compartments[dimensionless].
 5.5000E-01  phi_ldon_vir    phi_ldon_vir: Partitioning of viral losses to various dissolved pools[dimensionless].
 5.0000E-02  phi_srdon_vir   phi_srdon_vir: Partitioning of viral losses to various dissolved pools[dimensionless].
 4.0000E-01  phi_sldon_vir   phi_sldon_vir: Partitioning of viral losses to various dissolved pools[dimensionless].
 4.5000E-01  phi_ldop_vir    phi_ldop_vir: Partitioning of viral losses to various dissolved pools[dimensionless].
 1.5000E-01  phi_srdop_vir   phi_srdop_vir: Partitioning of viral losses to various dissolved pools[dimensionless].
 4.0000E-01  phi_sldop_vir   phi_sldop_vir: Partitioning of viral losses to various dissolved pools[dimensionless].
 1.0417E-06  imax_hp         imax_hp: Parameters for unresolved higher predators[s-1].
 1.2000E-06  ki_hp           ki_hp: Parameters for unresolved higher predators[mol N kg-1].
 2.0000E+00  coef_hp         coef_hp: Parameters for unresolved higher predators[dimensionless].
 6.3000E-02  ktemp_hp        ktemp_hp: Parameters for unresolved higher predators[C-1].
 2.0000E+00  nswitch_hp      nswitch_hp: Parameters for unresolved higher predators[dimensionless].
 2.0000E+00  mswitch_hp      mswitch_hp: Parameters for unresolved higher predators[dimensionless].
 0.0000E+00  hp_ipa_smp      hp_ipa_smp: Parameters for unresolved higher predators[dimensionless].
 0.0000E+00  hp_ipa_lgp      hp_ipa_lgp: Parameters for unresolved higher predators[dimensionless].
 0.0000E+00  hp_ipa_diaz     hp_ipa_diaz: Parameters for unresolved higher predators[dimensionless].
 0.0000E+00  hp_ipa_smz      hp_ipa_smz: Parameters for unresolved higher predators[dimensionless].
 1.0000E+00  hp_ipa_mdz      hp_ipa_mdz: Parameters for unresolved higher predators[dimensionless].
 1.0000E+00  hp_ipa_lgz      hp_ipa_lgz: Parameters for unresolved higher predators[dimensionless].
 0.0000E+00  hp_ipa_bact     hp_ipa_bact: Parameters for unresolved higher predators[dimensionless].
 0.0000E+00  hp_ipa_det      hp_ipa_det: Parameters for unresolved higher predators[dimensionless].
 3.5000E-01  hp_phi_det      hp_phi_det: Parameters for unresolved higher predators[dimensionless].
 0.0000E+00  hp_phi_ldon     hp_phi_ldon: Parameters for unresolved higher predators[dimensionless].
 0.0000E+00  hp_phi_ldop     hp_phi_ldop: Parameters for unresolved higher predators[dimensionless].
 0.0000E+00  hp_phi_srdon    hp_phi_srdon: Parameters for unresolved higher predators[dimensionless].
[...]
 Schmidt number is  -0.138184318726297        590.453216934960     
 Schmidt number is  -0.182598978024900        2177.12852345068     
 Schmidt number is  -0.175687717304201        620.950882844566     
 Schmidt number is  -0.750413877932024        756.186330938068     
 Schmidt number is  -0.100762416824815        2066.19846026261     
 Schmidt number is  -0.126708874729644        1157.16970117824     
 Schmidt number is  -0.109382152789491        1073.61958758393     
 Schmidt number is  -0.216181412914104        587.402479910653     
 Schmidt number is  -0.165626107343085        1882.58022164854     
 Schmidt number is  -0.285519837960022        855.309034226712     
 Schmidt number is  -4.483137397407821E-002   566.611153148343     
 Schmidt number is  -0.362891182714459        509.057981964568     
 Schmidt number is  -0.135685494384062        664.682179480157     
 Schmidt number is  -0.224887647013932        1292.37735969856     
 Schmidt number is  -0.214288966652289        678.488013808294     
 Schmidt number is  -0.299484466469852        1540.55900279208     
 Schmidt number is  -0.361526433777795        587.750182072522     
 Schmidt number is  -0.192456169416657        880.961999165854     
 Schmidt number is  -0.283095253250389        838.802477316257     
 Schmidt number is  -0.125972943377989        1738.78220804351     
 Schmidt number is  -0.222864803374060        1598.53392964947     
 Schmidt number is  -0.136017392605789        1267.22946128827     
 Schmidt number is  -0.156124828023218        762.046975672498     
 Schmidt number is  -0.270941499471019        1436.33821354386     
 Schmidt number is  -0.176259597134808        1129.26238869280     
 Schmidt number is  -0.321560540338629        893.152609040661     
 Schmidt number is  -0.294472400878244        1587.29568138650     
 Schmidt number is  -0.160843365510728        844.487659412538     
 Schmidt number is  -5.009868242787774E-002   618.948691372868     
 Schmidt number is  -0.325108279687489        1776.33549178376     
 Schmidt number is  -0.122924247336397        1304.70300726588     
 Schmidt number is  -5.646539010303903E-002   679.839718615550     
 Schmidt number is  -7.023409418638570E-002   1380.89901044846     
 Schmidt number is  -0.188672007537750        595.306416634374     
 Schmidt number is  -0.191405574544610        1427.30925793940     
 Schmidt number is  -0.156161163920572        1725.94446598746     
 Schmidt number is  -0.673648499044041        658.738071525520     
 Schmidt number is  -8.133913231413954E-002   620.111426453959     
 Schmidt number is  -0.105047454013250        1548.13527377739     
 Schmidt number is  -8.749287890775428E-002   695.351573378456     
 Schmidt number is  -9.496116154680616E-002   669.618353659328     
 Schmidt number is  -0.132411234306631        1887.75109457508     
 Schmidt number is  -0.161390209895703        684.801841053709     
 Schmidt number is  -0.358671402549875        2644.98435562994     
 Schmidt number is  -0.394666898953826        653.892806193164     
 Schmidt number is  -0.148138042337798        605.258267048979     
 Schmidt number is  -0.292371791057118        684.712805345234     
 Schmidt number is  -0.434239449295460        645.788566349510     
 Schmidt number is  -7.102662642848445E-002   1063.99024094914     
 Schmidt number is  -0.129596942671373        763.988241784124     
 Schmidt number is  -0.158444948802689        671.181557871610     
 Schmidt number is  -7.184137013212391E-002   1167.73820118312     
 Schmidt number is  -0.284658784533239        683.180339425075     
 Schmidt number is  -0.206376933681720        580.147258585725     
 Schmidt number is  -0.491953673489305        944.759034976828     
 Schmidt number is  -2.877210623803527E-002   982.180144303211     
 Schmidt number is  -0.276115461011442        649.790444876549     
 Schmidt number is  -0.123844104296187        613.295253106566     
 Schmidt number is  -0.183216147275761        683.179228382220     
 Schmidt number is  -0.217248287062704        760.075701499649     
 Schmidt number is  -0.319828211958866        645.319994730621     
 Schmidt number is  -0.155708666284083        1705.71142187809     
 Schmidt number is  -8.935728023538954E-002   687.869611170220     
 Schmidt number is  -0.210933637533130        770.822950143596     
 Schmidt number is  -7.021404171988271E-002   894.989837214137     
 Schmidt number is  -0.129007156773988        805.257922104071     
 Schmidt number is  -0.578251544502103        589.084976211098     
 Schmidt number is  -0.244524458290591        571.726970343145     
 Schmidt number is  -0.429103814477626        774.385807691705     
 Schmidt number is  -0.290051681915379        540.474533024789     
 Schmidt number is  -0.136047863999658        664.775744769326     
 Schmidt number is  -3.634560916732660E-002   635.911590980210     
 Schmidt number is  -0.142499150402079        910.866488146941     
 Schmidt number is  -0.283467001430197        998.742842577058     
 Schmidt number is  -0.231334518800275        597.478513432502     
 Schmidt number is  -0.137152660371811        716.175015241590     
 Schmidt number is  -3.866246754835324E-002   587.246767618121     
 Schmidt number is  -0.245593188690401        538.609141360376     
 Schmidt number is  -0.305328560455234        636.091265991467     
 Schmidt number is  -0.107012023016547        658.924752437566     
 Schmidt number is  -9.466180051637253E-002   619.293519957210     
 Schmidt number is  -0.103574037534249        697.602989257859     
 Schmidt number is  -0.178909525284968        718.069601400943     
 Schmidt number is  -0.270494736734948        593.086721297746     
 Schmidt number is  -1.546394794419896E-002   713.839977083698     
 Schmidt number is  -0.230312190138100        703.817326096375     
 Schmidt number is  -9.338712852882851E-002   682.082067249446     
 Schmidt number is  -0.112132693230060        654.574772689423     
 Schmidt number is  -0.116112420804614        661.552658885320     
 Schmidt number is  -0.141648876589826        699.964713243216     
 Schmidt number is  -0.190083471590435        706.195605095193     
 Schmidt number is  -0.119937613752021        698.881457891709     
 Schmidt number is  -0.212994810611371        680.734975590647     
 Schmidt number is  -0.227113370141686        771.690933042940     
 Schmidt number is  -0.222938207890810        734.495729213230     
      16 40925 02:00:00  8.474092E-03  2.259930E+04  2.259931E+04  2.732814E+16
          (119,041,17)  3.101482E-02  7.805779E-03  3.661816E-01  1.766950E+00
 Schmidt number is   0.000000000000000E+000   4.15313328181054     
 Schmidt number is  -1.057404644553883E-004   913.884633824198     
 Schmidt number is  -2.496296042275331E-005   825.566030285355     
 Schmidt number is   -19954.7168506235        119188.039478934     
 Schmidt number is   -33.6277727200549        555.404252799453     
 Schmidt number is   0.000000000000000E+000   4.15313328181054     
 Schmidt number is   -102145.931564371        143076.891290371     
 Schmidt number is   -87223.8703693571        386435.940107401     
 Schmidt number is   -273649.905306357        338770.884940599     
 Schmidt number is   -139293.099141914        69199.4348611967     
 Schmidt number is   -23145.4551618566       8.034117312298672E+018
 Schmidt number is   -96580.3836707853        37164.3773072664     
 Schmidt number is  -6.266031862641536E-002   671.561885676942     
 Schmidt number is  -0.130515611995469        945.109785181718     
 Schmidt number is  -0.198674274680824        624.640105563997     
 Schmidt number is  -7.073732559321183E-002   765.221681198717     
 Schmidt number is  -4.305568531800670E-002   620.818005595610     
 Schmidt number is  -0.188843324980312        633.006339960937     
 Schmidt number is  -7.067972124987007E-002   556.286230420278     
 Schmidt number is  -0.307773875817477        637.013188090054     
 Schmidt number is  -5.113712712486359E-002   588.373186358386     
 Schmidt number is  -0.244356081666068        944.802730330664     
 Schmidt number is  -0.157500746313668        554.487194413030     
 Schmidt number is  -0.147583563444423        583.554197968247     
 Schmidt number is  -0.361364238477443        488.497593036746     
 Schmidt number is  -0.125577209704402        2621.35619342440     
 Schmidt number is  -6.864147544596259E-002   617.619433402042     
 Schmidt number is  -0.291130222501511        553.053261816995     
 Schmidt number is  -8.969823786652104E-002   653.105229316560     
 Schmidt number is  -0.318782459758617        559.067219785482     
 Schmidt number is  -0.204104256094660        546.126761057983     
 Schmidt number is  -7.131307897457187E-002   625.929860793263     
 Schmidt number is  -0.309051126451116        564.249250629442     
 Schmidt number is  -0.256121932295082        536.049374635256     
 Schmidt number is  -0.207662305750602        564.645907841417     
 Schmidt number is  -0.230776453711879        792.181715621015     
 Schmidt number is  -0.223719586387293        630.374398313067     
 Schmidt number is   0.000000000000000E+000  1.189382599503426E-312
 Schmidt number is  -0.499926353007065        496.375237416262     
 Schmidt number is   0.000000000000000E+000  1.189382599503426E-312
 Schmidt number is  -0.170643215995957        2531.90085630219     
 Schmidt number is  -4.758794305786110E-002   520.051756504900     
 Schmidt number is  -0.111687721705720        2625.09959177297     
 Schmidt number is  -0.113531603779031        514.913940050429     
 Schmidt number is  -0.750872914989666        756.178466895012     
 Schmidt number is  -5.142280110700341E-002   1798.18407200587     
 Schmidt number is  -0.189914821140117        475.949117102829     
 Schmidt number is  -0.285730583854038        855.285167993440     
 Schmidt number is  -0.126545619162385        1157.18163808394     
 Schmidt number is  -0.493088640465466        500.914590644216     
 Schmidt number is  -4.859428259060111E-002   1502.37303557508     
 Schmidt number is  -0.299884795110819        503.650605973521     
 Schmidt number is   -218795.379986600        153064.468589052     
 Schmidt number is  -0.165885972121453        1882.43187755084     
 Schmidt number is  -0.283183435995666        838.806849347553     
 Schmidt number is  -0.176319290086057        1129.21465254706     
 Schmidt number is  -0.136063577998595        1267.20150919031     
 Schmidt number is  -0.222261665575948        1598.40417542035     
 Schmidt number is  -0.160820548129906        844.511124980942     
 Schmidt number is  -0.191425134042901        1427.34940765534     
 Schmidt number is  -0.123060794584537        1304.78658481874     
 Schmidt number is  -6.999786682276445E-002   1380.92243477561     
 Schmidt number is  -0.105115484787452        1548.15654235505     
 Schmidt number is  -0.155961321841286        1725.90407284956     
 Schmidt number is  -0.155877619898632        1705.66687778693     
 Schmidt number is  -0.132280141866906        1887.66759463738     
 Schmidt number is  -0.271080479968536        1436.39735229611     
 Schmidt number is  -0.295467934417044        1587.34653553850     
 Schmidt number is  -0.325842520874405        1776.41639547207     
 Schmidt number is   -5116.12591491629        99442.4235544528     
 Schmidt number is   3.816285576757957E-316   636.843536301882     
 Schmidt number is   -19.8100806348220        141457.421609456     
 Schmidt number is  -0.201074449525194        608.670183954733     
 Schmidt number is   0.000000000000000E+000   4.15313328181054     
 Schmidt number is   0.000000000000000E+000   4.15313328181054     
 Schmidt number is   0.000000000000000E+000   4.15313328181054     
 Schmidt number is   0.000000000000000E+000   4.15313328181054     
 Schmidt number is   0.000000000000000E+000   4.15313328181054     
 Schmidt number is   0.000000000000000E+000   4.15313328181054     
 Schmidt number is  -2.794829096592320E-005   2953.38549361348     
 Schmidt number is   -3.91415012322845        2629.58515194003     
 Schmidt number is   0.000000000000000E+000   533.669532316753     
 Schmidt number is  -6.135487820202839E-002   586.544532225135     
 Schmidt number is  -0.590385735855967        577.197935411677     
 Schmidt number is   0.000000000000000E+000  1.092784128999670E-312
 Schmidt number is  -0.150995361072442        546.283585942738     
 Schmidt number is  -0.119903595514451        524.232724122798     
 Schmidt number is  -2.223594326210268E-002   1025.28335015218     
 Schmidt number is  -0.207239588658742        587.425705198958     
 Schmidt number is  -0.218019893125857        760.139309527388     
 Schmidt number is  -2.976359855635385E-002   982.116866442872     
 Schmidt number is  -8.847969333642001E-002   687.877910156788     
 Schmidt number is  -0.362782487715011        509.080042043712     
 Schmidt number is  -0.128699804684909        805.330064600878     
 Schmidt number is  -0.135401988395859        664.686051187469     
 Schmidt number is  -0.109702638351743        1074.42634306329     
 Schmidt number is  -0.214260454040497        678.487159536164     
 Schmidt number is  -0.138141754563070        590.457616822124     
 Schmidt number is  -0.361280548586587        587.766428226792     
 Schmidt number is  -0.175732436324185        620.943645524725     
 Schmidt number is  -0.211427447296392        770.827803374184     
 Schmidt number is   0.000000000000000E+000   577.748561507081     
 Schmidt number is  -0.178945347629578        718.072578325121     
 Schmidt number is  -0.107332479543276        658.965672942946     
 Schmidt number is   0.000000000000000E+000   577.696238858338     
 Schmidt number is  -0.192220746231505        881.540780140242     
 Schmidt number is  -0.104243593155236        697.634177087472     
 Schmidt number is  -4.485391445044802E-002   566.509946883090     
 Schmidt number is  -0.137456863056821        716.180203684603     
 Schmidt number is  -0.156338297839748        762.170944398286     
 Schmidt number is  -0.673481846380313        658.760459606204     
 Schmidt number is  -3.662621667211845E-002   635.918806346719     
 Schmidt number is  -0.225401678212520        1293.34264378821     
 Schmidt number is  -9.033485382500586E-002   695.533976370966     
 Schmidt number is  -4.934188877800291E-002   618.883666980402     
 Schmidt number is  -0.188611883710814        595.362532880051     
 Schmidt number is  -8.110812562174953E-002   620.119098642837     
 Schmidt number is  -0.394637563622738        654.005241950235     
 Schmidt number is  -9.479353253469559E-002   669.616384629498     
 Schmidt number is  -0.129694306372809        764.092745595113     
 Schmidt number is  -5.693377776342754E-002   679.827818401195     
 Schmidt number is  -0.434120935752123        645.792374129172     
 Schmidt number is  -0.142111434696798        700.005789328106     
 Schmidt number is  -0.158447869430376        671.175785521107     
 Schmidt number is  -9.341030167556670E-002   682.093311947034     
 Schmidt number is  -7.005653147041828E-002   896.075279316499     
 Schmidt number is  -0.276237899072433        649.791698567623     
 Schmidt number is  -0.191104290269117        706.199930051750     
 Schmidt number is  -0.146599498717313        605.303359199273     
 Schmidt number is  -0.112440840049474        654.583587131630     
 Schmidt number is  -0.429368530163629        774.377963359581     
 Schmidt number is  -0.182886222523255        683.170773822347     
 Schmidt number is  -0.116487366756537        661.556861592007     
 Schmidt number is  -0.283637980602284        998.769466258928     
 Schmidt number is  -0.161404349328017        684.788363020123     
 Schmidt number is  -0.142396010387492        910.866972980506     
 Schmidt number is  -0.319759926072312        645.267934111097     
 Schmidt number is  -0.120341368528234        698.882036563674     
 Schmidt number is  -7.111947924303157E-002   1063.98756621791     
 Schmidt number is  -0.286181487225395        683.175338286108     
 Schmidt number is  -0.292595649137468        684.700387298239     
 Schmidt number is  -0.227140409427067        771.685773716672     
 Schmidt number is  -0.244556046057258        571.809201218669     
 Schmidt number is  -0.213859384948850        680.737761148078     
 Schmidt number is  -7.156495114861672E-002   1167.75117491453     
 Schmidt number is  -0.223070638530186        734.501213075138     
 Schmidt number is  -0.491629961748847        944.771289889883     
 Schmidt number is  -0.290107142283550        540.585540301275     
 Schmidt number is  -3.862829154918888E-002   587.341550477226     
 Schmidt number is  -0.136847757262041        664.854312034432     
 Schmidt number is  -9.449343025629449E-002   619.397404377133     
 Schmidt number is  -0.124608369580280        613.340770084771     
 Schmidt number is  -0.206666033420565        580.197496289081     
 Schmidt number is  -0.270605083370935        593.159483613104     
 Schmidt number is  -0.245451836145049        538.647896767379     
 Schmidt number is  -0.231474122843692        597.695143979966     
 Schmidt number is  -1.575119708553667E-002   713.844416077462     
 Schmidt number is  -0.305558223744656        636.091400246306     
 Schmidt number is  -0.578127124144986        589.151420858279     
 Schmidt number is  -0.230403572473161        703.945754165988     
 Schmidt number is   0.000000000000000E+000  1.335995101662404E-312
 Schmidt number is   0.000000000000000E+000  1.335995101662404E-312
 Schmidt number is   0.000000000000000E+000  1.258160959173482E-312
 Schmidt number is   0.000000000000000E+000  1.321375296676798E-312
 Schmidt number is  -0.227743430882063        1040.34852271426     
 Schmidt number is   0.000000000000000E+000  1.321375296676798E-312
 Schmidt number is   0.000000000000000E+000  1.321375296676798E-312
 Schmidt number is   0.000000000000000E+000  1.321375296676798E-312
 Schmidt number is   0.000000000000000E+000  1.335995101662404E-312
 Schmidt number is   0.000000000000000E+000  1.321375296676798E-312
 Schmidt number is   0.000000000000000E+000  1.335995101662404E-312
 Schmidt number is   0.000000000000000E+000  1.258160959173482E-312
 Schmidt number is   0.000000000000000E+000  1.321375296676798E-312
 Schmidt number is   0.000000000000000E+000  1.258160959173482E-312
 Schmidt number is   0.000000000000000E+000   3890.92786842862     
 Schmidt number is  -0.152381466878748        1001.93880242896     
 Schmidt number is   0.000000000000000E+000  1.258160959173482E-312
 Schmidt number is   0.000000000000000E+000  1.258160959173482E-312
 Schmidt number is  -0.163747989846678        1502.23552256426     
 Schmidt number is   0.000000000000000E+000  1.258160959173482E-312
 Schmidt number is  -3.470373849985018E-002   1420.59753515401     
 Schmidt number is  -0.183067503470670        2177.20948083680     
 Schmidt number is  -9.072396075797995E-002   1790.51396160348     
 Schmidt number is  -0.321547191384319        894.344316740963     
 Schmidt number is  -0.114441613404175        2909.14783984070     
 Schmidt number is  -9.503444912307810E-002   2147.61865638889     
 Schmidt number is   -5798.79545668383        21115.9137109199     
 Schmidt number is  -0.100969990045546        2068.68013697448     
 Schmidt number is  -0.382185442593869        2645.24541195585     
 Schmidt number is  -5.790219425316019E-002   2895.25009632237     
 Schmidt number is  -0.299283681235850        1539.73176888946     
 Schmidt number is  -0.125845915710458        1737.63110996448     
      17 40925 02:04:00  8.475792E-03  2.259926E+04  2.259927E+04  2.732809E+16
          (193,029,40)  3.074809E-03  4.137597E-03  4.809807E-01  1.767363E+00
srun: Job step aborted: Waiting up to 32 seconds for job step to finish.
slurmstepd: *** JOB 3859790 ON cn229 CANCELLED AT 2020-11-19T12:08:54 ***
